/*---------------------------------------------------------------------------*\
| =========                 |                                                 |
| \\      /  F ield         | OpenFOAM: The Open Source CFD Toolbox           |
|  \\    /   O peration     | Version:  2406                                  |
|   \\  /    A nd           | Website:  www.openfoam.com                      |
|    \\/     M anipulation  |                                                 |
\*---------------------------------------------------------------------------*/
Build  : _630d60de3b-20240620 OPENFOAM=2406 version=v2406
Arch   : "LSB;label=32;scalar=64"
Exec   : checkMesh
Date   : Nov 22 2024
Time   : 10:53:36
Host   : MacBook-Air-de-Denis.local
PID    : 44407
I/O    : uncollated
Case   : /Users/df/Documents/3A/POLI48/OpenFoamSim/ahmedBetterDroplet
nProcs : 1
trapFpe: Floating point exception trapping enabled (FOAM_SIGFPE).
fileModificationChecking : Monitoring run-time modified files using timeStampMaster (fileModificationSkew 5, maxFileModificationPolls 20)
allowSystemOperations : Allowing user-supplied system call operations

// * * * * * * * * * * * * * * * * * * * * * * * * * * * * * * * * * * * * * //
Create time

--> FOAM Warning : 
    From static Foam::instantList Foam::timeSelector::select0(Time &, const argList &)
    in file db/Time/timeSelector.C at line 284
    No time specified or available, selecting 'constant'
Create mesh for time = constant

Check mesh...

Time = constant

Mesh stats 
    points:           953839
    faces:            2703138
    internal faces:   2645171
    cells:            875615
    faces per cell:   6.10806
    boundary patches: 6
    point zones:      1
    face zones:       0
    cell zones:       0

Overall number of cells of each type:
    hexahedra:     824763
    prisms:        2905
    wedges:        0
    pyramids:      0
    tet wedges:    51
    tetrahedra:    2
    polyhedra:     47894
    Breakdown of polyhedra by number of faces:
        faces   number of cells
            4   1707
            5   1006
            6   4477
            7   12249
            8   4909
            9   21076
           10   51
           12   1753
           15   653
           18   13

Checking topology...
    Boundary definition OK.
    Cell to face addressing OK.
    Point usage OK.
    Upper triangular ordering OK.
    Face vertices OK.
    Number of regions: 1 (OK).

Checking patch topology for multiply connected surfaces...
                   Patch    Faces   Points  Surface topology
            frontAndBack     4964     5292  ok (non-closed singly connected)
                   inlet      629      664  ok (non-closed singly connected)
                  outlet      629      664  ok (non-closed singly connected)
               lowerWall    12760    13177  ok (non-closed singly connected)
               upperWall     2482     2646  ok (non-closed singly connected)
               ahmedBody    36503    38083      ok (closed singly connected)
                    ".*"    57967    59802      ok (closed singly connected)


Checking faceZone topology for multiply connected surfaces...
    No faceZones found.

Checking basic cellZone addressing...
    No cellZones found.

Checking basic pointZone addressing...
               PointZone  PointsBoundingBox
            frozenPoints       0(1e+150 1e+150 1e+150) (-1e+150 -1e+150 -1e+150)

Checking geometry...
    Overall domain bounding box (-1.3 -0.25 -0.0218) (3 0.25 0.4782)
    Mesh has 3 geometric (non-empty/wedge) directions (1 1 1)
    Mesh has 3 solution (non-empty) directions (1 1 1)
    Boundary openness (-3.8198e-17 5.85711e-18 2.05115e-15) OK.
    Max cell openness = 6.4431e-16 OK.
    Max aspect ratio = 22.1754 OK.
    Minimum face area = 1.17711e-07. Maximum face area = 0.00104675.  Face area magnitudes OK.
    Min volume = 1.0566e-10. Max volume = 2.5899e-05.  Total volume = 1.07239.  Cell volumes OK.
    Mesh non-orthogonality Max: 64.5432 average: 6.66688
    Non-orthogonality check OK.
    Face pyramids OK.
    Max skewness = 3.80391 OK.
    Coupled point location match (average 0) OK.

Mesh OK.

End

