/*---------------------------------------------------------------------------*\
| =========                 |                                                 |
| \\      /  F ield         | OpenFOAM: The Open Source CFD Toolbox           |
|  \\    /   O peration     | Version:  2406                                  |
|   \\  /    A nd           | Website:  www.openfoam.com                      |
|    \\/     M anipulation  |                                                 |
\*---------------------------------------------------------------------------*/
Build  : _630d60de3b-20240620 OPENFOAM=2406 version=v2406
Arch   : "LSB;label=32;scalar=64"
Exec   : simpleFoam -parallel
Date   : Nov 22 2024
Time   : 10:53:41
Host   : MacBook-Air-de-Denis.local
PID    : 44429
I/O    : uncollated
Case   : /Users/df/Documents/3A/POLI48/OpenFoamSim/ahmedBetterDroplet
nProcs : 4
Hosts  :
(
    (MacBook-Air-de-Denis.local 4)
)
Pstream initialized with:
    floatTransfer      : false
    maxCommsSize       : 0
    nProcsSimpleSum    : 0
    nonBlockingExchange: 0 (tuning: 0)
    exchange algorithm : 0
    commsType          : nonBlocking
    polling iterations : 0
trapFpe: Floating point exception trapping enabled (FOAM_SIGFPE).
fileModificationChecking : Monitoring run-time modified files using timeStampMaster (fileModificationSkew 5, maxFileModificationPolls 20)
allowSystemOperations : Allowing user-supplied system call operations

// * * * * * * * * * * * * * * * * * * * * * * * * * * * * * * * * * * * * * //
Create time

Create mesh for time = 0


SIMPLE: no convergence criteria found. Calculations will run for 500 steps.

Reading field p

Reading field U

Reading/calculating face flux field phi

Selecting incompressible transport model Newtonian
Selecting turbulence model type RAS
Selecting RAS turbulence model kOmegaSST
Selecting patchDistMethod meshWave
RAS
{
    RASModel        kOmegaSST;
    turbulence      on;
    printCoeffs     on;
    alphaK1         0.85;
    alphaK2         1;
    alphaOmega1     0.5;
    alphaOmega2     0.856;
    gamma1          0.555556;
    gamma2          0.44;
    beta1           0.075;
    beta2           0.0828;
    betaStar        0.09;
    a1              0.31;
    b1              1;
    c1              10;
    F3              false;
    decayControl    false;
    kInf            0;
    omegaInf        0;
}

No MRF models present

No finite volume options present

Starting time loop

Sampled surface:
    xNormal -> vtk
        sampledCuttingPlane: xNormal : plane:(1 0 0) (0.09 0 0) offsets:(0)
    yNormal_0 -> vtk
        sampledCuttingPlane: yNormal_0 : plane:(0 1 0) (0 0 0) offsets:(0)
    zNormal_0 -> vtk
        sampledCuttingPlane: zNormal_0 : plane:(0 0 1) (0 0 0) offsets:(0)
    zNormal_0_1 -> vtk
        sampledCuttingPlane: zNormal_0_1 : plane:(0 0 1) (0 0 0.1) offsets:(0)
    zNormal_0_05 -> vtk
        sampledCuttingPlane: zNormal_0_05 : plane:(0 0 1) (0 0 0.05) offsets:(0)

forces forces:
    rho: rhoInf
    Freestream density (rhoInf) set to 1
    Not including porosity effects

fieldAverage fieldAverage:
    Restarting averaging for fields:
        U: starting averaging at time 0
        p: starting averaging at time 0

Time = 1

smoothSolver:  Solving for Ux, Initial residual = 1, Final residual = 0.0956995, No Iterations 12
smoothSolver:  Solving for Uy, Initial residual = 1, Final residual = 0.0989003, No Iterations 12
smoothSolver:  Solving for Uz, Initial residual = 1, Final residual = 0.0873808, No Iterations 13
GAMG:  Solving for p, Initial residual = 1, Final residual = 0.00636174, No Iterations 10
GAMG:  Solving for p, Initial residual = 0.0376054, Final residual = 0.000276034, No Iterations 4
GAMG:  Solving for p, Initial residual = 0.0037103, Final residual = 2.52581e-05, No Iterations 6
time step continuity errors : sum local = 0.000580392, global = -1.36119e-05, cumulative = -1.36119e-05
smoothSolver:  Solving for omega, Initial residual = 0.144661, Final residual = 0.00942717, No Iterations 3
bounding omega, min: -30.344 max: 762842 average: 5185.96
smoothSolver:  Solving for k, Initial residual = 1, Final residual = 0.0603207, No Iterations 4
ExecutionTime = 2.02 s  ClockTime = 2 s

forces forces write:
    Sum of forces
        Total    : (129.132 1.27871 27.6208)
        Pressure : (128.947 1.27867 27.6228)
        Viscous  : (0.184868 4.6227e-05 -0.00194251)
    Sum of moments
        Total    : (-0.732758 -276.025 16.26)
        Pressure : (-0.732805 -276.053 16.2548)
        Viscous  : (4.63908e-05 0.0279366 0.00514226)
    writing force and moment files.

Time = 2

smoothSolver:  Solving for Ux, Initial residual = 0.344674, Final residual = 0.0277766, No Iterations 11
smoothSolver:  Solving for Uy, Initial residual = 0.755102, Final residual = 0.0670722, No Iterations 11
smoothSolver:  Solving for Uz, Initial residual = 0.523951, Final residual = 0.0486868, No Iterations 11
GAMG:  Solving for p, Initial residual = 0.246969, Final residual = 0.00218167, No Iterations 6
GAMG:  Solving for p, Initial residual = 0.0159737, Final residual = 0.000140412, No Iterations 9
GAMG:  Solving for p, Initial residual = 0.00219988, Final residual = 2.16919e-05, No Iterations 9
time step continuity errors : sum local = 0.0126719, global = -0.000886427, cumulative = -0.000900039
smoothSolver:  Solving for omega, Initial residual = 0.103684, Final residual = 0.00694068, No Iterations 5
smoothSolver:  Solving for k, Initial residual = 0.762861, Final residual = 0.0604774, No Iterations 3
ExecutionTime = 3.57 s  ClockTime = 3 s

forces forces write:
    Sum of forces
        Total    : (33.1333 0.42597 6.74026)
        Pressure : (38.6977 0.413544 6.8632)
        Viscous  : (-5.5644 0.0124257 -0.122937)
    Sum of moments
        Total    : (-0.197767 -67.068 5.10343)
        Pressure : (-0.199906 -68.1424 5.11668)
        Viscous  : (0.00213847 1.07449 -0.013248)
    writing force and moment files.

Time = 3

smoothSolver:  Solving for Ux, Initial residual = 0.395137, Final residual = 0.0385295, No Iterations 6
smoothSolver:  Solving for Uy, Initial residual = 0.588138, Final residual = 0.0563861, No Iterations 7
smoothSolver:  Solving for Uz, Initial residual = 0.483306, Final residual = 0.044129, No Iterations 8
GAMG:  Solving for p, Initial residual = 0.507425, Final residual = 0.00434719, No Iterations 8
GAMG:  Solving for p, Initial residual = 0.0231512, Final residual = 0.00019986, No Iterations 8
GAMG:  Solving for p, Initial residual = 0.00288405, Final residual = 2.80501e-05, No Iterations 9
time step continuity errors : sum local = 0.00661554, global = 2.5831e-05, cumulative = -0.000874208
smoothSolver:  Solving for omega, Initial residual = 0.0461486, Final residual = 0.00243667, No Iterations 4
smoothSolver:  Solving for k, Initial residual = 0.105449, Final residual = 0.00873311, No Iterations 3
ExecutionTime = 5.03 s  ClockTime = 5 s

forces forces write:
    Sum of forces
        Total    : (251.318 2.90807 -6.39465)
        Pressure : (252.651 2.9186 -6.25486)
        Viscous  : (-1.3329 -0.0105328 -0.139783)
    Sum of moments
        Total    : (0.0414837 71.7179 35.4523)
        Pressure : (0.0376483 70.3502 35.5917)
        Viscous  : (0.00383542 1.36769 -0.13934)
    writing force and moment files.

Time = 4

smoothSolver:  Solving for Ux, Initial residual = 0.402305, Final residual = 0.0302595, No Iterations 7
smoothSolver:  Solving for Uy, Initial residual = 0.556686, Final residual = 0.0449455, No Iterations 7
smoothSolver:  Solving for Uz, Initial residual = 0.457012, Final residual = 0.0385668, No Iterations 7
GAMG:  Solving for p, Initial residual = 0.0955383, Final residual = 0.000813832, No Iterations 12
GAMG:  Solving for p, Initial residual = 0.0191672, Final residual = 0.000163092, No Iterations 11
GAMG:  Solving for p, Initial residual = 0.00190665, Final residual = 1.87667e-05, No Iterations 13
time step continuity errors : sum local = 0.00512845, global = 0.000157051, cumulative = -0.000717157
smoothSolver:  Solving for omega, Initial residual = 0.0373022, Final residual = 0.00226807, No Iterations 3
smoothSolver:  Solving for k, Initial residual = 0.0635386, Final residual = 0.00523791, No Iterations 3
ExecutionTime = 6.78 s  ClockTime = 7 s

forces forces write:
    Sum of forces
        Total    : (33.5553 11.8492 -21.102)
        Pressure : (33.9191 11.8624 -21.0158)
        Viscous  : (-0.363815 -0.0131706 -0.0862121)
    Sum of moments
        Total    : (-0.215916 215.249 120.416)
        Pressure : (-0.218941 214.393 120.557)
        Viscous  : (0.00302516 0.856253 -0.141189)
    writing force and moment files.

Time = 5

smoothSolver:  Solving for Ux, Initial residual = 0.33851, Final residual = 0.0332656, No Iterations 6
smoothSolver:  Solving for Uy, Initial residual = 0.45616, Final residual = 0.037688, No Iterations 7
smoothSolver:  Solving for Uz, Initial residual = 0.346551, Final residual = 0.0296207, No Iterations 7
GAMG:  Solving for p, Initial residual = 0.0990143, Final residual = 0.000935308, No Iterations 11
GAMG:  Solving for p, Initial residual = 0.019675, Final residual = 0.000179873, No Iterations 12
GAMG:  Solving for p, Initial residual = 0.00198058, Final residual = 1.72565e-05, No Iterations 17
time step continuity errors : sum local = 0.00509471, global = 5.23239e-05, cumulative = -0.000664833
smoothSolver:  Solving for omega, Initial residual = 0.0256775, Final residual = 0.00152674, No Iterations 3
smoothSolver:  Solving for k, Initial residual = 0.0557818, Final residual = 0.00498622, No Iterations 3
ExecutionTime = 8.7 s  ClockTime = 9 s

forces forces write:
    Sum of forces
        Total    : (13.4086 -9.09243 -13.643)
        Pressure : (13.447 -9.10527 -13.5557)
        Viscous  : (-0.038367 0.0128411 -0.0872699)
    Sum of moments
        Total    : (1.15728 139.944 -91.6438)
        Pressure : (1.1562 139.07 -91.7731)
        Viscous  : (0.00108231 0.874123 0.129358)
    writing force and moment files.

Time = 6

smoothSolver:  Solving for Ux, Initial residual = 0.260149, Final residual = 0.0239974, No Iterations 7
smoothSolver:  Solving for Uy, Initial residual = 0.401627, Final residual = 0.034807, No Iterations 7
smoothSolver:  Solving for Uz, Initial residual = 0.283657, Final residual = 0.0230227, No Iterations 7
GAMG:  Solving for p, Initial residual = 0.120961, Final residual = 0.00116213, No Iterations 11
GAMG:  Solving for p, Initial residual = 0.0189225, Final residual = 0.000163643, No Iterations 13
GAMG:  Solving for p, Initial residual = 0.00198411, Final residual = 1.72736e-05, No Iterations 15
time step continuity errors : sum local = 0.00519403, global = 3.58977e-05, cumulative = -0.000628935
smoothSolver:  Solving for omega, Initial residual = 0.02345, Final residual = 0.00138032, No Iterations 3
smoothSolver:  Solving for k, Initial residual = 0.062063, Final residual = 0.00490275, No Iterations 3
ExecutionTime = 10.52 s  ClockTime = 11 s

forces forces write:
    Sum of forces
        Total    : (1.95923 8.79729 -5.41038)
        Pressure : (1.87223 8.79495 -5.32968)
        Viscous  : (0.0870012 0.0023379 -0.0806938)
    Sum of moments
        Total    : (-0.381924 55.8887 88.6709)
        Pressure : (-0.383887 55.0791 88.6438)
        Viscous  : (0.00196305 0.809578 0.0271105)
    writing force and moment files.

Time = 7

smoothSolver:  Solving for Ux, Initial residual = 0.23482, Final residual = 0.020204, No Iterations 7
smoothSolver:  Solving for Uy, Initial residual = 0.369197, Final residual = 0.0330843, No Iterations 7
smoothSolver:  Solving for Uz, Initial residual = 0.242585, Final residual = 0.0218329, No Iterations 7
GAMG:  Solving for p, Initial residual = 0.126758, Final residual = 0.00113506, No Iterations 11
GAMG:  Solving for p, Initial residual = 0.017185, Final residual = 0.000162827, No Iterations 13
GAMG:  Solving for p, Initial residual = 0.00187594, Final residual = 1.73995e-05, No Iterations 17
time step continuity errors : sum local = 0.00518791, global = 6.66052e-05, cumulative = -0.00056233
smoothSolver:  Solving for omega, Initial residual = 0.0240709, Final residual = 0.00114691, No Iterations 3
smoothSolver:  Solving for k, Initial residual = 0.0694212, Final residual = 0.00518802, No Iterations 3
ExecutionTime = 12.41 s  ClockTime = 12 s

forces forces write:
    Sum of forces
        Total    : (1.64296 -1.5736 -2.57356)
        Pressure : (1.45152 -1.55627 -2.51264)
        Viscous  : (0.191443 -0.0173282 -0.0609125)
    Sum of moments
        Total    : (0.286081 26.7789 -15.7642)
        Pressure : (0.283267 26.1667 -15.596)
        Viscous  : (0.00281397 0.61229 -0.168197)
    writing force and moment files.

Time = 8

smoothSolver:  Solving for Ux, Initial residual = 0.250168, Final residual = 0.0246645, No Iterations 6
smoothSolver:  Solving for Uy, Initial residual = 0.410223, Final residual = 0.0379579, No Iterations 6
smoothSolver:  Solving for Uz, Initial residual = 0.259543, Final residual = 0.0258198, No Iterations 6
GAMG:  Solving for p, Initial residual = 0.121886, Final residual = 0.00111343, No Iterations 10
GAMG:  Solving for p, Initial residual = 0.014629, Final residual = 0.000144823, No Iterations 13
GAMG:  Solving for p, Initial residual = 0.00151754, Final residual = 1.34563e-05, No Iterations 18
time step continuity errors : sum local = 0.00398512, global = 4.6376e-05, cumulative = -0.000515954
smoothSolver:  Solving for omega, Initial residual = 0.0224775, Final residual = 0.00100932, No Iterations 3
smoothSolver:  Solving for k, Initial residual = 0.0642294, Final residual = 0.00448197, No Iterations 3
ExecutionTime = 14.36 s  ClockTime = 14 s

forces forces write:
    Sum of forces
        Total    : (10.8819 6.45966 -1.88158)
        Pressure : (10.642 6.47947 -1.84205)
        Viscous  : (0.23991 -0.019809 -0.0395309)
    Sum of moments
        Total    : (-0.324215 20.2985 65.235)
        Pressure : (-0.327091 19.8999 65.4271)
        Viscous  : (0.00287569 0.398605 -0.192069)
    writing force and moment files.

Time = 9

smoothSolver:  Solving for Ux, Initial residual = 0.216087, Final residual = 0.0176938, No Iterations 7
smoothSolver:  Solving for Uy, Initial residual = 0.365802, Final residual = 0.0291702, No Iterations 7
smoothSolver:  Solving for Uz, Initial residual = 0.226862, Final residual = 0.0178598, No Iterations 7
GAMG:  Solving for p, Initial residual = 0.113558, Final residual = 0.00107011, No Iterations 10
GAMG:  Solving for p, Initial residual = 0.0132926, Final residual = 0.000125302, No Iterations 12
GAMG:  Solving for p, Initial residual = 0.00134629, Final residual = 1.16735e-05, No Iterations 16
time step continuity errors : sum local = 0.00334887, global = 1.43528e-05, cumulative = -0.000501601
smoothSolver:  Solving for omega, Initial residual = 0.0208696, Final residual = 0.000939574, No Iterations 3
smoothSolver:  Solving for k, Initial residual = 0.0684337, Final residual = 0.00414717, No Iterations 3
ExecutionTime = 16.5 s  ClockTime = 17 s

forces forces write:
    Sum of forces
        Total    : (6.82971 -2.69689 -3.67349)
        Pressure : (6.61734 -2.67917 -3.64155)
        Viscous  : (0.212371 -0.0177185 -0.031936)
    Sum of moments
        Total    : (0.330263 37.9399 -27.0102)
        Pressure : (0.327562 37.6211 -26.8391)
        Viscous  : (0.00270158 0.318855 -0.171171)
    writing force and moment files.

Time = 10

smoothSolver:  Solving for Ux, Initial residual = 0.19671, Final residual = 0.0160773, No Iterations 7
smoothSolver:  Solving for Uy, Initial residual = 0.392932, Final residual = 0.033387, No Iterations 6
smoothSolver:  Solving for Uz, Initial residual = 0.219658, Final residual = 0.0168092, No Iterations 7
GAMG:  Solving for p, Initial residual = 0.109081, Final residual = 0.00104009, No Iterations 10
GAMG:  Solving for p, Initial residual = 0.012006, Final residual = 0.000116451, No Iterations 12
GAMG:  Solving for p, Initial residual = 0.00123325, Final residual = 1.14513e-05, No Iterations 16
time step continuity errors : sum local = 0.00321053, global = 2.661e-06, cumulative = -0.00049894
smoothSolver:  Solving for omega, Initial residual = 0.0197621, Final residual = 0.000855599, No Iterations 3
smoothSolver:  Solving for k, Initial residual = 0.0593231, Final residual = 0.00351435, No Iterations 3
ExecutionTime = 18.49 s  ClockTime = 19 s

forces forces write:
    Sum of forces
        Total    : (5.21801 2.85566 -5.08671)
        Pressure : (5.06931 2.82104 -5.04608)
        Viscous  : (0.148701 0.0346166 -0.0406242)
    Sum of moments
        Total    : (-0.0714301 52.1286 28.957)
        Pressure : (-0.0707496 51.7248 28.6016)
        Viscous  : (-0.000680466 0.403801 0.355358)
    writing force and moment files.

Time = 11

smoothSolver:  Solving for Ux, Initial residual = 0.185015, Final residual = 0.014999, No Iterations 7
smoothSolver:  Solving for Uy, Initial residual = 0.343348, Final residual = 0.0254086, No Iterations 7
smoothSolver:  Solving for Uz, Initial residual = 0.207603, Final residual = 0.0159508, No Iterations 7
GAMG:  Solving for p, Initial residual = 0.106357, Final residual = 0.000968374, No Iterations 10
GAMG:  Solving for p, Initial residual = 0.0115698, Final residual = 0.00010764, No Iterations 14
GAMG:  Solving for p, Initial residual = 0.00123218, Final residual = 1.09898e-05, No Iterations 18
time step continuity errors : sum local = 0.00301227, global = -3.32611e-05, cumulative = -0.000532201
smoothSolver:  Solving for omega, Initial residual = 0.0138654, Final residual = 0.000712412, No Iterations 3
smoothSolver:  Solving for k, Initial residual = 0.0548485, Final residual = 0.0030309, No Iterations 3
ExecutionTime = 21.03 s  ClockTime = 22 s

forces forces write:
    Sum of forces
        Total    : (2.97884 -0.680488 -6.56489)
        Pressure : (2.85876 -0.669582 -6.54426)
        Viscous  : (0.120075 -0.010906 -0.0206238)
    Sum of moments
        Total    : (0.207717 66.8631 -6.69611)
        Pressure : (0.204956 66.6614 -6.5915)
        Viscous  : (0.00276098 0.201656 -0.104606)
    writing force and moment files.

Time = 12

smoothSolver:  Solving for Ux, Initial residual = 0.173818, Final residual = 0.0145239, No Iterations 7
smoothSolver:  Solving for Uy, Initial residual = 0.317664, Final residual = 0.0309426, No Iterations 6
smoothSolver:  Solving for Uz, Initial residual = 0.200656, Final residual = 0.0154128, No Iterations 7
GAMG:  Solving for p, Initial residual = 0.10047, Final residual = 0.000875236, No Iterations 9
GAMG:  Solving for p, Initial residual = 0.0109673, Final residual = 9.4281e-05, No Iterations 15
GAMG:  Solving for p, Initial residual = 0.00116936, Final residual = 1.11593e-05, No Iterations 19
time step continuity errors : sum local = 0.00304635, global = -5.01945e-05, cumulative = -0.000582396
smoothSolver:  Solving for omega, Initial residual = 0.0121407, Final residual = 0.000627414, No Iterations 3
smoothSolver:  Solving for k, Initial residual = 0.0499885, Final residual = 0.00258964, No Iterations 3
ExecutionTime = 23.19 s  ClockTime = 25 s

forces forces write:
    Sum of forces
        Total    : (2.94557 -0.0673803 -6.80451)
        Pressure : (2.81211 -0.0555629 -6.78143)
        Viscous  : (0.133463 -0.0118175 -0.0230848)
    Sum of moments
        Total    : (0.189011 69.2681 -0.546943)
        Pressure : (0.186192 69.0384 -0.432372)
        Viscous  : (0.00281839 0.229682 -0.114571)
    writing force and moment files.

Time = 13

smoothSolver:  Solving for Ux, Initial residual = 0.161416, Final residual = 0.014088, No Iterations 7
smoothSolver:  Solving for Uy, Initial residual = 0.292977, Final residual = 0.02222, No Iterations 7
smoothSolver:  Solving for Uz, Initial residual = 0.19006, Final residual = 0.0150964, No Iterations 7
GAMG:  Solving for p, Initial residual = 0.0969557, Final residual = 0.000905779, No Iterations 9
GAMG:  Solving for p, Initial residual = 0.0104788, Final residual = 9.08354e-05, No Iterations 15
GAMG:  Solving for p, Initial residual = 0.00116412, Final residual = 9.9124e-06, No Iterations 19
time step continuity errors : sum local = 0.00267471, global = -1.66661e-05, cumulative = -0.000599062
smoothSolver:  Solving for omega, Initial residual = 0.0108783, Final residual = 0.000579717, No Iterations 3
smoothSolver:  Solving for k, Initial residual = 0.0482582, Final residual = 0.00235577, No Iterations 3
ExecutionTime = 25.29 s  ClockTime = 27 s

forces forces write:
    Sum of forces
        Total    : (1.4443 -1.32916 -6.74311)
        Pressure : (1.33026 -1.29492 -6.70798)
        Viscous  : (0.114043 -0.0342434 -0.0351311)
    Sum of moments
        Total    : (0.279627 68.4537 -13.2877)
        Pressure : (0.275595 68.103 -12.9467)
        Viscous  : (0.00403246 0.350648 -0.340991)
    writing force and moment files.

Time = 14

smoothSolver:  Solving for Ux, Initial residual = 0.151219, Final residual = 0.0135388, No Iterations 7
smoothSolver:  Solving for Uy, Initial residual = 0.273398, Final residual = 0.0214136, No Iterations 7
smoothSolver:  Solving for Uz, Initial residual = 0.177236, Final residual = 0.0142627, No Iterations 7
GAMG:  Solving for p, Initial residual = 0.0954568, Final residual = 0.000819312, No Iterations 9
GAMG:  Solving for p, Initial residual = 0.00981412, Final residual = 8.79953e-05, No Iterations 14
GAMG:  Solving for p, Initial residual = 0.00108521, Final residual = 9.40646e-06, No Iterations 18
time step continuity errors : sum local = 0.00245681, global = 1.20435e-06, cumulative = -0.000597858
smoothSolver:  Solving for omega, Initial residual = 0.0103393, Final residual = 0.000519093, No Iterations 3
smoothSolver:  Solving for k, Initial residual = 0.0443546, Final residual = 0.00206653, No Iterations 3
ExecutionTime = 27.63 s  ClockTime = 29 s

forces forces write:
    Sum of forces
        Total    : (0.840168 -0.947778 -5.88989)
        Pressure : (0.722724 -0.919257 -5.8525)
        Viscous  : (0.117445 -0.0285216 -0.0373934)
    Sum of moments
        Total    : (0.227724 59.7023 -9.47803)
        Pressure : (0.224719 59.3263 -9.19422)
        Viscous  : (0.00300473 0.376015 -0.283808)
    writing force and moment files.

Time = 15

smoothSolver:  Solving for Ux, Initial residual = 0.143967, Final residual = 0.0129968, No Iterations 7
smoothSolver:  Solving for Uy, Initial residual = 0.264737, Final residual = 0.0210409, No Iterations 7
smoothSolver:  Solving for Uz, Initial residual = 0.164274, Final residual = 0.0131136, No Iterations 7
GAMG:  Solving for p, Initial residual = 0.0916406, Final residual = 0.000768957, No Iterations 9
GAMG:  Solving for p, Initial residual = 0.00887353, Final residual = 8.0744e-05, No Iterations 14
GAMG:  Solving for p, Initial residual = 0.000954865, Final residual = 9.01304e-06, No Iterations 18
time step continuity errors : sum local = 0.00231196, global = 2.62863e-05, cumulative = -0.000571571
smoothSolver:  Solving for omega, Initial residual = 0.00896393, Final residual = 0.000475368, No Iterations 3
smoothSolver:  Solving for k, Initial residual = 0.0407759, Final residual = 0.00189089, No Iterations 3
ExecutionTime = 29.56 s  ClockTime = 31 s

forces forces write:
    Sum of forces
        Total    : (0.379893 -1.56289 -4.58826)
        Pressure : (0.253351 -1.53711 -4.56299)
        Viscous  : (0.126542 -0.0257781 -0.0252756)
    Sum of moments
        Total    : (0.232081 46.4189 -15.7091)
        Pressure : (0.229767 46.1627 -15.4525)
        Viscous  : (0.00231436 0.256179 -0.256613)
    writing force and moment files.

Time = 16

smoothSolver:  Solving for Ux, Initial residual = 0.13335, Final residual = 0.0122936, No Iterations 7
smoothSolver:  Solving for Uy, Initial residual = 0.246549, Final residual = 0.0199734, No Iterations 7
smoothSolver:  Solving for Uz, Initial residual = 0.148772, Final residual = 0.011959, No Iterations 7
GAMG:  Solving for p, Initial residual = 0.0868764, Final residual = 0.000739168, No Iterations 9
GAMG:  Solving for p, Initial residual = 0.00816522, Final residual = 6.89898e-05, No Iterations 14
GAMG:  Solving for p, Initial residual = 0.000886446, Final residual = 8.15779e-06, No Iterations 17
time step continuity errors : sum local = 0.0020343, global = 2.14701e-05, cumulative = -0.000550101
smoothSolver:  Solving for omega, Initial residual = 0.00819449, Final residual = 0.000438026, No Iterations 3
smoothSolver:  Solving for k, Initial residual = 0.0376753, Final residual = 0.00174134, No Iterations 3
ExecutionTime = 31.65 s  ClockTime = 33 s

forces forces write:
    Sum of forces
        Total    : (0.142283 -1.39751 -3.47835)
        Pressure : (0.0161018 -1.38125 -3.45835)
        Viscous  : (0.126181 -0.0162644 -0.0200019)
    Sum of moments
        Total    : (0.186717 35.1139 -14.0539)
        Pressure : (0.185398 34.909 -13.8936)
        Viscous  : (0.00131896 0.204863 -0.160365)
    writing force and moment files.

Time = 17

smoothSolver:  Solving for Ux, Initial residual = 0.125303, Final residual = 0.011753, No Iterations 7
smoothSolver:  Solving for Uy, Initial residual = 0.232791, Final residual = 0.0184602, No Iterations 7
smoothSolver:  Solving for Uz, Initial residual = 0.135592, Final residual = 0.0110228, No Iterations 7
GAMG:  Solving for p, Initial residual = 0.0837868, Final residual = 0.000665937, No Iterations 9
GAMG:  Solving for p, Initial residual = 0.0076254, Final residual = 7.27965e-05, No Iterations 13
GAMG:  Solving for p, Initial residual = 0.000831834, Final residual = 7.70375e-06, No Iterations 17
time step continuity errors : sum local = 0.00187252, global = 1.20237e-05, cumulative = -0.000538077
smoothSolver:  Solving for omega, Initial residual = 0.00767776, Final residual = 0.000405127, No Iterations 3
smoothSolver:  Solving for k, Initial residual = 0.0378703, Final residual = 0.00167979, No Iterations 3
ExecutionTime = 33.61 s  ClockTime = 35 s

forces forces write:
    Sum of forces
        Total    : (0.242228 -1.35608 -2.66312)
        Pressure : (0.108568 -1.34065 -2.65208)
        Viscous  : (0.13366 -0.0154293 -0.011039)
    Sum of moments
        Total    : (0.159491 26.8126 -13.6298)
        Pressure : (0.15842 26.6964 -13.4778)
        Viscous  : (0.00107123 0.116181 -0.151974)
    writing force and moment files.

Time = 18

smoothSolver:  Solving for Ux, Initial residual = 0.118618, Final residual = 0.0110959, No Iterations 7
smoothSolver:  Solving for Uy, Initial residual = 0.221975, Final residual = 0.0170043, No Iterations 7
smoothSolver:  Solving for Uz, Initial residual = 0.127233, Final residual = 0.0103697, No Iterations 7
GAMG:  Solving for p, Initial residual = 0.0810517, Final residual = 0.000634955, No Iterations 9
GAMG:  Solving for p, Initial residual = 0.00748924, Final residual = 7.47547e-05, No Iterations 13
GAMG:  Solving for p, Initial residual = 0.000823392, Final residual = 7.20815e-06, No Iterations 18
time step continuity errors : sum local = 0.00170638, global = -4.74637e-06, cumulative = -0.000542824
smoothSolver:  Solving for omega, Initial residual = 0.00716372, Final residual = 0.000374541, No Iterations 3
smoothSolver:  Solving for k, Initial residual = 0.0358908, Final residual = 0.00158975, No Iterations 3
ExecutionTime = 35.61 s  ClockTime = 37 s

forces forces write:
    Sum of forces
        Total    : (0.294559 -1.64779 -2.21369)
        Pressure : (0.176792 -1.63156 -2.19947)
        Viscous  : (0.117767 -0.0162318 -0.0142193)
    Sum of moments
        Total    : (0.165541 22.2232 -16.5576)
        Pressure : (0.164473 22.0748 -16.3975)
        Viscous  : (0.00106832 0.148439 -0.160106)
    writing force and moment files.

Time = 19

smoothSolver:  Solving for Ux, Initial residual = 0.112153, Final residual = 0.010529, No Iterations 7
smoothSolver:  Solving for Uy, Initial residual = 0.207475, Final residual = 0.0161295, No Iterations 7
smoothSolver:  Solving for Uz, Initial residual = 0.122106, Final residual = 0.0100439, No Iterations 7
GAMG:  Solving for p, Initial residual = 0.0791246, Final residual = 0.00062724, No Iterations 10
GAMG:  Solving for p, Initial residual = 0.00739833, Final residual = 6.63138e-05, No Iterations 14
GAMG:  Solving for p, Initial residual = 0.000826306, Final residual = 7.42837e-06, No Iterations 18
time step continuity errors : sum local = 0.00170242, global = -1.62616e-05, cumulative = -0.000559086
smoothSolver:  Solving for omega, Initial residual = 0.00657857, Final residual = 0.000344493, No Iterations 3
smoothSolver:  Solving for k, Initial residual = 0.0357129, Final residual = 0.00154398, No Iterations 3
ExecutionTime = 37.72 s  ClockTime = 39 s

forces forces write:
    Sum of forces
        Total    : (0.317981 -1.46707 -1.96983)
        Pressure : (0.212154 -1.45618 -1.95782)
        Viscous  : (0.105828 -0.0108889 -0.012003)
    Sum of moments
        Total    : (0.135573 19.7229 -14.7259)
        Pressure : (0.135122 19.5974 -14.6193)
        Viscous  : (0.00045107 0.125483 -0.10661)
    writing force and moment files.

Time = 20

smoothSolver:  Solving for Ux, Initial residual = 0.107337, Final residual = 0.00995715, No Iterations 7
smoothSolver:  Solving for Uy, Initial residual = 0.200109, Final residual = 0.0151235, No Iterations 7
smoothSolver:  Solving for Uz, Initial residual = 0.119486, Final residual = 0.00980767, No Iterations 7
GAMG:  Solving for p, Initial residual = 0.0768281, Final residual = 0.00075499, No Iterations 9
GAMG:  Solving for p, Initial residual = 0.00736219, Final residual = 6.76419e-05, No Iterations 15
GAMG:  Solving for p, Initial residual = 0.000843787, Final residual = 8.21855e-06, No Iterations 18
time step continuity errors : sum local = 0.00181734, global = -1.35551e-05, cumulative = -0.000572641
smoothSolver:  Solving for omega, Initial residual = 0.00670014, Final residual = 0.000321059, No Iterations 3
smoothSolver:  Solving for k, Initial residual = 0.0370556, Final residual = 0.00147494, No Iterations 3
ExecutionTime = 39.87 s  ClockTime = 42 s

forces forces write:
    Sum of forces
        Total    : (0.344324 -1.84149 -1.8395)
        Pressure : (0.249097 -1.82275 -1.82514)
        Viscous  : (0.0952277 -0.0187433 -0.0143524)
    Sum of moments
        Total    : (0.149507 18.395 -18.4944)
        Pressure : (0.148591 18.2461 -18.3082)
        Viscous  : (0.000915987 0.148833 -0.186173)
    writing force and moment files.

Time = 21

smoothSolver:  Solving for Ux, Initial residual = 0.103042, Final residual = 0.00940935, No Iterations 7
smoothSolver:  Solving for Uy, Initial residual = 0.190135, Final residual = 0.0145888, No Iterations 7
smoothSolver:  Solving for Uz, Initial residual = 0.119878, Final residual = 0.00985096, No Iterations 7
GAMG:  Solving for p, Initial residual = 0.0748436, Final residual = 0.000597249, No Iterations 10
GAMG:  Solving for p, Initial residual = 0.00711829, Final residual = 6.09986e-05, No Iterations 15
GAMG:  Solving for p, Initial residual = 0.000821089, Final residual = 7.68638e-06, No Iterations 18
time step continuity errors : sum local = 0.00162906, global = -3.96936e-06, cumulative = -0.00057661
smoothSolver:  Solving for omega, Initial residual = 0.00679572, Final residual = 0.000300673, No Iterations 3
smoothSolver:  Solving for k, Initial residual = 0.034856, Final residual = 0.00144423, No Iterations 3
ExecutionTime = 42 s  ClockTime = 44 s

forces forces write:
    Sum of forces
        Total    : (0.345869 -1.65612 -1.59752)
        Pressure : (0.263221 -1.64694 -1.58353)
        Viscous  : (0.0826477 -0.00918815 -0.0139894)
    Sum of moments
        Total    : (0.124163 15.9526 -16.6241)
        Pressure : (0.124048 15.8085 -16.534)
        Viscous  : (0.000114587 0.144088 -0.0901164)
    writing force and moment files.

Time = 22

smoothSolver:  Solving for Ux, Initial residual = 0.100935, Final residual = 0.00908865, No Iterations 7
smoothSolver:  Solving for Uy, Initial residual = 0.186517, Final residual = 0.014048, No Iterations 7
smoothSolver:  Solving for Uz, Initial residual = 0.121652, Final residual = 0.0100004, No Iterations 7
GAMG:  Solving for p, Initial residual = 0.0739876, Final residual = 0.000736121, No Iterations 9
GAMG:  Solving for p, Initial residual = 0.00718347, Final residual = 6.27727e-05, No Iterations 15
GAMG:  Solving for p, Initial residual = 0.000839733, Final residual = 7.63224e-06, No Iterations 18
time step continuity errors : sum local = 0.00154144, global = 1.6294e-05, cumulative = -0.000560316
smoothSolver:  Solving for omega, Initial residual = 0.00566609, Final residual = 0.000286843, No Iterations 3
smoothSolver:  Solving for k, Initial residual = 0.0326228, Final residual = 0.00141649, No Iterations 3
ExecutionTime = 44.01 s  ClockTime = 46 s

forces forces write:
    Sum of forces
        Total    : (0.45655 -1.73568 -1.12062)
        Pressure : (0.383556 -1.71635 -1.11033)
        Viscous  : (0.0729947 -0.0193325 -0.0102914)
    Sum of moments
        Total    : (0.120557 11.1669 -17.4292)
        Pressure : (0.119664 11.0606 -17.2367)
        Viscous  : (0.000893545 0.10631 -0.192494)
    writing force and moment files.

Time = 23

smoothSolver:  Solving for Ux, Initial residual = 0.0995514, Final residual = 0.00884266, No Iterations 7
smoothSolver:  Solving for Uy, Initial residual = 0.177999, Final residual = 0.0136447, No Iterations 7
smoothSolver:  Solving for Uz, Initial residual = 0.121829, Final residual = 0.0100364, No Iterations 7
GAMG:  Solving for p, Initial residual = 0.0739541, Final residual = 0.000600924, No Iterations 10
GAMG:  Solving for p, Initial residual = 0.00718318, Final residual = 6.33967e-05, No Iterations 14
GAMG:  Solving for p, Initial residual = 0.000821479, Final residual = 6.90292e-06, No Iterations 18
time step continuity errors : sum local = 0.00131384, global = 1.6527e-05, cumulative = -0.000543789
smoothSolver:  Solving for omega, Initial residual = 0.00526274, Final residual = 0.000271888, No Iterations 3
smoothSolver:  Solving for k, Initial residual = 0.0341312, Final residual = 0.00140929, No Iterations 3
ExecutionTime = 46.06 s  ClockTime = 48 s

forces forces write:
    Sum of forces
        Total    : (0.589696 -1.42969 -0.539992)
        Pressure : (0.521019 -1.41826 -0.531721)
        Viscous  : (0.0686774 -0.011425 -0.00827038)
    Sum of moments
        Total    : (0.0889771 5.3483 -14.3453)
        Pressure : (0.0887136 5.26273 -14.2322)
        Viscous  : (0.000263466 0.0855733 -0.113054)
    writing force and moment files.

Time = 24

smoothSolver:  Solving for Ux, Initial residual = 0.0990956, Final residual = 0.00852059, No Iterations 7
smoothSolver:  Solving for Uy, Initial residual = 0.175357, Final residual = 0.0131937, No Iterations 7
smoothSolver:  Solving for Uz, Initial residual = 0.122317, Final residual = 0.00996639, No Iterations 7
GAMG:  Solving for p, Initial residual = 0.0735464, Final residual = 0.000702509, No Iterations 9
GAMG:  Solving for p, Initial residual = 0.00731468, Final residual = 6.24684e-05, No Iterations 14
GAMG:  Solving for p, Initial residual = 0.000808278, Final residual = 7.59366e-06, No Iterations 17
time step continuity errors : sum local = 0.00136107, global = 1.45699e-05, cumulative = -0.000529219
smoothSolver:  Solving for omega, Initial residual = 0.00515681, Final residual = 0.00025531, No Iterations 3
smoothSolver:  Solving for k, Initial residual = 0.0317794, Final residual = 0.00142725, No Iterations 3
ExecutionTime = 48.09 s  ClockTime = 50 s

forces forces write:
    Sum of forces
        Total    : (0.723504 -1.31822 0.00654648)
        Pressure : (0.66094 -1.30199 0.0114553)
        Viscous  : (0.0625636 -0.016227 -0.00490878)
    Sum of moments
        Total    : (0.0745028 -0.117821 -13.2217)
        Pressure : (0.0739312 -0.169241 -13.0601)
        Viscous  : (0.000571613 0.0514194 -0.16165)
    writing force and moment files.

Time = 25

smoothSolver:  Solving for Ux, Initial residual = 0.0983926, Final residual = 0.00814904, No Iterations 7
smoothSolver:  Solving for Uy, Initial residual = 0.168981, Final residual = 0.0128313, No Iterations 7
smoothSolver:  Solving for Uz, Initial residual = 0.122829, Final residual = 0.00988369, No Iterations 7
GAMG:  Solving for p, Initial residual = 0.0731799, Final residual = 0.000579243, No Iterations 10
GAMG:  Solving for p, Initial residual = 0.00716304, Final residual = 5.99958e-05, No Iterations 13
GAMG:  Solving for p, Initial residual = 0.000757322, Final residual = 6.42651e-06, No Iterations 17
time step continuity errors : sum local = 0.00107778, global = 1.11296e-05, cumulative = -0.000518089
smoothSolver:  Solving for omega, Initial residual = 0.00464856, Final residual = 0.000241087, No Iterations 3
smoothSolver:  Solving for k, Initial residual = 0.0336131, Final residual = 0.00146796, No Iterations 3
ExecutionTime = 50.07 s  ClockTime = 52 s

forces forces write:
    Sum of forces
        Total    : (0.858563 -0.945958 0.421019)
        Pressure : (0.798896 -0.934726 0.422687)
        Viscous  : (0.0596663 -0.0112313 -0.00166786)
    Sum of moments
        Total    : (0.0452397 -4.25436 -9.47103)
        Pressure : (0.0450615 -4.27302 -9.35963)
        Viscous  : (0.000178156 0.0186644 -0.111398)
    writing force and moment files.

Time = 26

smoothSolver:  Solving for Ux, Initial residual = 0.0976169, Final residual = 0.00772879, No Iterations 7
smoothSolver:  Solving for Uy, Initial residual = 0.168021, Final residual = 0.0165076, No Iterations 6
smoothSolver:  Solving for Uz, Initial residual = 0.124069, Final residual = 0.00978932, No Iterations 7
GAMG:  Solving for p, Initial residual = 0.0725663, Final residual = 0.000639571, No Iterations 9
GAMG:  Solving for p, Initial residual = 0.00687637, Final residual = 5.79763e-05, No Iterations 13
GAMG:  Solving for p, Initial residual = 0.000718517, Final residual = 6.69594e-06, No Iterations 16
time step continuity errors : sum local = 0.00104567, global = 1.00474e-05, cumulative = -0.000508042
smoothSolver:  Solving for omega, Initial residual = 0.00449646, Final residual = 0.000220908, No Iterations 3
smoothSolver:  Solving for k, Initial residual = 0.0317326, Final residual = 0.00148851, No Iterations 3
ExecutionTime = 52.03 s  ClockTime = 54 s

forces forces write:
    Sum of forces
        Total    : (0.920182 -0.768586 0.717725)
        Pressure : (0.865504 -0.752072 0.717888)
        Viscous  : (0.0546783 -0.0165138 -0.000163626)
    Sum of moments
        Total    : (0.034325 -7.21634 -7.68723)
        Pressure : (0.0338319 -7.21982 -7.5224)
        Viscous  : (0.000493126 0.00347978 -0.164834)
    writing force and moment files.

Time = 27

smoothSolver:  Solving for Ux, Initial residual = 0.0961501, Final residual = 0.00718303, No Iterations 7
smoothSolver:  Solving for Uy, Initial residual = 0.15983, Final residual = 0.0159718, No Iterations 6
smoothSolver:  Solving for Uz, Initial residual = 0.124876, Final residual = 0.00951435, No Iterations 7
GAMG:  Solving for p, Initial residual = 0.0721754, Final residual = 0.000631785, No Iterations 9
GAMG:  Solving for p, Initial residual = 0.00664026, Final residual = 6.61813e-05, No Iterations 12
GAMG:  Solving for p, Initial residual = 0.000693291, Final residual = 6.75814e-06, No Iterations 16
time step continuity errors : sum local = 0.000974686, global = 8.27507e-06, cumulative = -0.000499767
smoothSolver:  Solving for omega, Initial residual = 0.00401623, Final residual = 0.000202875, No Iterations 3
smoothSolver:  Solving for k, Initial residual = 0.0319268, Final residual = 0.0014698, No Iterations 3
ExecutionTime = 54.32 s  ClockTime = 56 s

forces forces write:
    Sum of forces
        Total    : (0.988797 -0.355683 0.855296)
        Pressure : (0.934414 -0.344327 0.853926)
        Viscous  : (0.0543829 -0.0113568 0.00136999)
    Sum of moments
        Total    : (0.00864781 -8.58282 -3.52821)
        Pressure : (0.00857906 -8.5711 -3.41534)
        Viscous  : (6.87502e-05 -0.0117194 -0.112875)
    writing force and moment files.

Time = 28

smoothSolver:  Solving for Ux, Initial residual = 0.0953736, Final residual = 0.00899059, No Iterations 6
smoothSolver:  Solving for Uy, Initial residual = 0.155492, Final residual = 0.015132, No Iterations 6
smoothSolver:  Solving for Uz, Initial residual = 0.127086, Final residual = 0.0124018, No Iterations 6
GAMG:  Solving for p, Initial residual = 0.0721688, Final residual = 0.000603722, No Iterations 9
GAMG:  Solving for p, Initial residual = 0.00641848, Final residual = 6.36989e-05, No Iterations 12
GAMG:  Solving for p, Initial residual = 0.00066655, Final residual = 6.36541e-06, No Iterations 16
time step continuity errors : sum local = 0.000838704, global = -5.77396e-06, cumulative = -0.000505541
smoothSolver:  Solving for omega, Initial residual = 0.00384276, Final residual = 0.000184588, No Iterations 3
smoothSolver:  Solving for k, Initial residual = 0.0303028, Final residual = 0.00144843, No Iterations 3
ExecutionTime = 56.35 s  ClockTime = 58 s

forces forces write:
    Sum of forces
        Total    : (0.957659 -0.182701 0.913304)
        Pressure : (0.909402 -0.165982 0.911167)
        Viscous  : (0.0482571 -0.0167188 0.0021371)
    Sum of moments
        Total    : (0.00108274 -9.16024 -1.78528)
        Pressure : (0.000640554 -9.14065 -1.61835)
        Viscous  : (0.00044219 -0.0195886 -0.166925)
    writing force and moment files.

Time = 29

smoothSolver:  Solving for Ux, Initial residual = 0.0942116, Final residual = 0.00843332, No Iterations 6
smoothSolver:  Solving for Uy, Initial residual = 0.146537, Final residual = 0.0144152, No Iterations 6
smoothSolver:  Solving for Uz, Initial residual = 0.126014, Final residual = 0.0120206, No Iterations 6
GAMG:  Solving for p, Initial residual = 0.0724665, Final residual = 0.000608395, No Iterations 9
GAMG:  Solving for p, Initial residual = 0.00650376, Final residual = 6.37284e-05, No Iterations 12
GAMG:  Solving for p, Initial residual = 0.00067506, Final residual = 6.45577e-06, No Iterations 16
time step continuity errors : sum local = 0.000769883, global = -6.91513e-06, cumulative = -0.000512456
smoothSolver:  Solving for omega, Initial residual = 0.00338762, Final residual = 0.000168965, No Iterations 3
smoothSolver:  Solving for k, Initial residual = 0.0285271, Final residual = 0.00141155, No Iterations 3
ExecutionTime = 58.27 s  ClockTime = 60 s

forces forces write:
    Sum of forces
        Total    : (0.976776 0.101027 0.914553)
        Pressure : (0.928164 0.113393 0.910993)
        Viscous  : (0.0486117 -0.0123653 0.00355995)
    Sum of moments
        Total    : (-0.0155383 -9.1651 1.07448)
        Pressure : (-0.0157213 -9.13138 1.19743)
        Viscous  : (0.000183039 -0.0337193 -0.122942)
    writing force and moment files.

Time = 30

smoothSolver:  Solving for Ux, Initial residual = 0.0919988, Final residual = 0.00789636, No Iterations 6
smoothSolver:  Solving for Uy, Initial residual = 0.142317, Final residual = 0.0139992, No Iterations 6
smoothSolver:  Solving for Uz, Initial residual = 0.124555, Final residual = 0.0117226, No Iterations 6
GAMG:  Solving for p, Initial residual = 0.0729119, Final residual = 0.000551356, No Iterations 9
GAMG:  Solving for p, Initial residual = 0.00661808, Final residual = 6.19034e-05, No Iterations 12
GAMG:  Solving for p, Initial residual = 0.000668412, Final residual = 6.12878e-06, No Iterations 16
time step continuity errors : sum local = 0.000652429, global = -6.14963e-06, cumulative = -0.000518606
smoothSolver:  Solving for omega, Initial residual = 0.00310562, Final residual = 0.000154584, No Iterations 3
smoothSolver:  Solving for k, Initial residual = 0.0276898, Final residual = 0.0013697, No Iterations 3
ExecutionTime = 60.17 s  ClockTime = 62 s

forces forces write:
    Sum of forces
        Total    : (0.972325 0.194627 0.919333)
        Pressure : (0.925945 0.206746 0.917222)
        Viscous  : (0.0463799 -0.0121193 0.00211059)
    Sum of moments
        Total    : (-0.0198621 -9.2097 2.01496)
        Pressure : (-0.0200983 -9.19068 2.1354)
        Viscous  : (0.000236215 -0.0190202 -0.120438)
    writing force and moment files.

Time = 31

smoothSolver:  Solving for Ux, Initial residual = 0.0880933, Final residual = 0.007336, No Iterations 6
smoothSolver:  Solving for Uy, Initial residual = 0.138177, Final residual = 0.0104288, No Iterations 7
smoothSolver:  Solving for Uz, Initial residual = 0.122472, Final residual = 0.011595, No Iterations 6
GAMG:  Solving for p, Initial residual = 0.0742531, Final residual = 0.000577296, No Iterations 9
GAMG:  Solving for p, Initial residual = 0.00674976, Final residual = 6.03382e-05, No Iterations 12
GAMG:  Solving for p, Initial residual = 0.000680726, Final residual = 5.76487e-06, No Iterations 16
time step continuity errors : sum local = 0.000545917, global = -5.55214e-06, cumulative = -0.000524158
smoothSolver:  Solving for omega, Initial residual = 0.00284853, Final residual = 0.000140476, No Iterations 3
smoothSolver:  Solving for k, Initial residual = 0.0267558, Final residual = 0.00132301, No Iterations 3
ExecutionTime = 62.12 s  ClockTime = 64 s

forces forces write:
    Sum of forces
        Total    : (0.942194 0.36267 0.930151)
        Pressure : (0.896222 0.369764 0.926361)
        Viscous  : (0.0459714 -0.00709387 0.00378984)
    Sum of moments
        Total    : (-0.0312148 -9.32042 3.70161)
        Pressure : (-0.0312009 -9.28457 3.77135)
        Viscous  : (-1.38685e-05 -0.0358501 -0.069745)
    writing force and moment files.

Time = 32

smoothSolver:  Solving for Ux, Initial residual = 0.0836267, Final residual = 0.00684844, No Iterations 6
smoothSolver:  Solving for Uy, Initial residual = 0.135265, Final residual = 0.0104706, No Iterations 7
smoothSolver:  Solving for Uz, Initial residual = 0.120019, Final residual = 0.0115662, No Iterations 6
GAMG:  Solving for p, Initial residual = 0.0762133, Final residual = 0.000531414, No Iterations 9
GAMG:  Solving for p, Initial residual = 0.00671155, Final residual = 6.55237e-05, No Iterations 11
GAMG:  Solving for p, Initial residual = 0.000670198, Final residual = 6.42839e-06, No Iterations 15
time step continuity errors : sum local = 0.000538683, global = -5.93153e-06, cumulative = -0.000530089
smoothSolver:  Solving for omega, Initial residual = 0.00261668, Final residual = 0.000130065, No Iterations 3
smoothSolver:  Solving for k, Initial residual = 0.0256641, Final residual = 0.00130668, No Iterations 3
ExecutionTime = 63.96 s  ClockTime = 66 s

forces forces write:
    Sum of forces
        Total    : (0.929658 0.414017 0.917982)
        Pressure : (0.882366 0.421038 0.915231)
        Viscous  : (0.0472917 -0.00702027 0.00275085)
    Sum of moments
        Total    : (-0.0340987 -9.2005 4.2086)
        Pressure : (-0.0341985 -9.17536 4.27762)
        Viscous  : (9.97634e-05 -0.025136 -0.0690211)
    writing force and moment files.

Time = 33

smoothSolver:  Solving for Ux, Initial residual = 0.0793139, Final residual = 0.00643036, No Iterations 6
smoothSolver:  Solving for Uy, Initial residual = 0.131287, Final residual = 0.0106198, No Iterations 7
smoothSolver:  Solving for Uz, Initial residual = 0.116053, Final residual = 0.0113336, No Iterations 6
GAMG:  Solving for p, Initial residual = 0.0778944, Final residual = 0.000706754, No Iterations 8
GAMG:  Solving for p, Initial residual = 0.00678503, Final residual = 5.70856e-05, No Iterations 12
GAMG:  Solving for p, Initial residual = 0.000682017, Final residual = 5.88395e-06, No Iterations 15
time step continuity errors : sum local = 0.000442473, global = -4.71128e-06, cumulative = -0.000534801
smoothSolver:  Solving for omega, Initial residual = 0.00237207, Final residual = 0.000122306, No Iterations 3
smoothSolver:  Solving for k, Initial residual = 0.0244065, Final residual = 0.00130178, No Iterations 3
ExecutionTime = 65.83 s  ClockTime = 68 s

forces forces write:
    Sum of forces
        Total    : (0.880721 0.494039 0.878491)
        Pressure : (0.834362 0.496366 0.875389)
        Viscous  : (0.0463596 -0.00232669 0.00310275)
    Sum of moments
        Total    : (-0.0392149 -8.81048 5.00563)
        Pressure : (-0.0390927 -8.78182 5.02737)
        Viscous  : (-0.000122205 -0.028664 -0.0217413)
    writing force and moment files.

Time = 34

smoothSolver:  Solving for Ux, Initial residual = 0.0747548, Final residual = 0.00602732, No Iterations 6
smoothSolver:  Solving for Uy, Initial residual = 0.127496, Final residual = 0.0106996, No Iterations 7
smoothSolver:  Solving for Uz, Initial residual = 0.110119, Final residual = 0.00826913, No Iterations 7
GAMG:  Solving for p, Initial residual = 0.0789743, Final residual = 0.000634156, No Iterations 8
GAMG:  Solving for p, Initial residual = 0.00677624, Final residual = 6.66055e-05, No Iterations 11
GAMG:  Solving for p, Initial residual = 0.000689217, Final residual = 6.06658e-06, No Iterations 15
time step continuity errors : sum local = 0.000415054, global = -4.25599e-06, cumulative = -0.000539057
smoothSolver:  Solving for omega, Initial residual = 0.0021652, Final residual = 0.000115451, No Iterations 3
smoothSolver:  Solving for k, Initial residual = 0.0227591, Final residual = 0.00129732, No Iterations 3
ExecutionTime = 67.69 s  ClockTime = 70 s

forces forces write:
    Sum of forces
        Total    : (0.860851 0.463154 0.810654)
        Pressure : (0.81268 0.465245 0.808698)
        Viscous  : (0.0481712 -0.00209084 0.00195671)
    Sum of moments
        Total    : (-0.0363557 -8.13236 4.68581)
        Pressure : (-0.0363207 -8.11541 4.70527)
        Viscous  : (-3.50135e-05 -0.0169489 -0.0194632)
    writing force and moment files.

Time = 35

smoothSolver:  Solving for Ux, Initial residual = 0.0697042, Final residual = 0.00564727, No Iterations 6
smoothSolver:  Solving for Uy, Initial residual = 0.124183, Final residual = 0.010706, No Iterations 7
smoothSolver:  Solving for Uz, Initial residual = 0.103567, Final residual = 0.00801178, No Iterations 7
GAMG:  Solving for p, Initial residual = 0.0788067, Final residual = 0.000704922, No Iterations 8
GAMG:  Solving for p, Initial residual = 0.00674428, Final residual = 5.88795e-05, No Iterations 12
GAMG:  Solving for p, Initial residual = 0.000698774, Final residual = 6.04259e-06, No Iterations 15
time step continuity errors : sum local = 0.000384252, global = -3.28619e-06, cumulative = -0.000542343
smoothSolver:  Solving for omega, Initial residual = 0.00190174, Final residual = 0.000109135, No Iterations 3
smoothSolver:  Solving for k, Initial residual = 0.0214209, Final residual = 0.00128774, No Iterations 3
ExecutionTime = 69.53 s  ClockTime = 72 s

forces forces write:
    Sum of forces
        Total    : (0.800961 0.444623 0.7509)
        Pressure : (0.753101 0.444146 0.749032)
        Viscous  : (0.0478603 0.000477388 0.00186782)
    Sum of moments
        Total    : (-0.0353351 -7.53775 4.49231)
        Pressure : (-0.0352091 -7.52168 4.48596)
        Viscous  : (-0.00012604 -0.0160623 0.00634636)
    writing force and moment files.

Time = 36

smoothSolver:  Solving for Ux, Initial residual = 0.064087, Final residual = 0.00530363, No Iterations 6
smoothSolver:  Solving for Uy, Initial residual = 0.122364, Final residual = 0.0105826, No Iterations 7
smoothSolver:  Solving for Uz, Initial residual = 0.0979665, Final residual = 0.0077847, No Iterations 7
GAMG:  Solving for p, Initial residual = 0.0780997, Final residual = 0.000658728, No Iterations 8
GAMG:  Solving for p, Initial residual = 0.00661647, Final residual = 6.12653e-05, No Iterations 12
GAMG:  Solving for p, Initial residual = 0.00069112, Final residual = 6.59916e-06, No Iterations 15
time step continuity errors : sum local = 0.000394466, global = 9.02851e-07, cumulative = -0.00054144
smoothSolver:  Solving for omega, Initial residual = 0.00172141, Final residual = 0.000102764, No Iterations 3
smoothSolver:  Solving for k, Initial residual = 0.0201125, Final residual = 0.00127255, No Iterations 3
ExecutionTime = 71.42 s  ClockTime = 74 s

forces forces write:
    Sum of forces
        Total    : (0.760702 0.381778 0.721834)
        Pressure : (0.711668 0.380932 0.720562)
        Viscous  : (0.0490343 0.000846983 0.0012725)
    Sum of moments
        Total    : (-0.0322582 -7.24841 3.8531)
        Pressure : (-0.0321692 -7.23845 3.84313)
        Viscous  : (-8.90469e-05 -0.00995782 0.00997028)
    writing force and moment files.

Time = 37

smoothSolver:  Solving for Ux, Initial residual = 0.0582633, Final residual = 0.004972, No Iterations 6
smoothSolver:  Solving for Uy, Initial residual = 0.120065, Final residual = 0.0103678, No Iterations 7
smoothSolver:  Solving for Uz, Initial residual = 0.0938577, Final residual = 0.00754502, No Iterations 7
GAMG:  Solving for p, Initial residual = 0.0769294, Final residual = 0.000706974, No Iterations 8
GAMG:  Solving for p, Initial residual = 0.00650548, Final residual = 5.64894e-05, No Iterations 13
GAMG:  Solving for p, Initial residual = 0.000698083, Final residual = 5.95654e-06, No Iterations 16
time step continuity errors : sum local = 0.000339159, global = 1.48952e-06, cumulative = -0.00053995
smoothSolver:  Solving for omega, Initial residual = 0.00156428, Final residual = 9.74102e-05, No Iterations 3
smoothSolver:  Solving for k, Initial residual = 0.0189271, Final residual = 0.00126355, No Iterations 3
ExecutionTime = 73.34 s  ClockTime = 76 s

forces forces write:
    Sum of forces
        Total    : (0.722114 0.3209 0.724347)
        Pressure : (0.672734 0.318776 0.72316)
        Viscous  : (0.0493808 0.00212406 0.00118628)
    Sum of moments
        Total    : (-0.0305909 -7.27587 3.2359)
        Pressure : (-0.0304398 -7.26684 3.21312)
        Viscous  : (-0.000151174 -0.00903456 0.0227804)
    writing force and moment files.

Time = 38

smoothSolver:  Solving for Ux, Initial residual = 0.0528115, Final residual = 0.00464274, No Iterations 6
smoothSolver:  Solving for Uy, Initial residual = 0.116997, Final residual = 0.0100528, No Iterations 7
smoothSolver:  Solving for Uz, Initial residual = 0.0905572, Final residual = 0.00729826, No Iterations 7
GAMG:  Solving for p, Initial residual = 0.0749135, Final residual = 0.000693377, No Iterations 8
GAMG:  Solving for p, Initial residual = 0.00632993, Final residual = 5.86068e-05, No Iterations 13
GAMG:  Solving for p, Initial residual = 0.00068394, Final residual = 6.45533e-06, No Iterations 16
time step continuity errors : sum local = 0.000352396, global = 1.67924e-06, cumulative = -0.000538271
smoothSolver:  Solving for omega, Initial residual = 0.00143329, Final residual = 9.24691e-05, No Iterations 3
smoothSolver:  Solving for k, Initial residual = 0.0180203, Final residual = 0.00125727, No Iterations 3
ExecutionTime = 75.22 s  ClockTime = 77 s

forces forces write:
    Sum of forces
        Total    : (0.706001 0.243375 0.74308)
        Pressure : (0.655992 0.241061 0.741902)
        Viscous  : (0.0500093 0.00231423 0.00117832)
    Sum of moments
        Total    : (-0.0280597 -7.46573 2.45331)
        Pressure : (-0.0279013 -7.45686 2.4287)
        Viscous  : (-0.000158406 -0.00887303 0.0246114)
    writing force and moment files.

Time = 39

smoothSolver:  Solving for Ux, Initial residual = 0.0479926, Final residual = 0.00433096, No Iterations 6
smoothSolver:  Solving for Uy, Initial residual = 0.113458, Final residual = 0.00973245, No Iterations 7
smoothSolver:  Solving for Uz, Initial residual = 0.0872867, Final residual = 0.00701277, No Iterations 7
GAMG:  Solving for p, Initial residual = 0.0722186, Final residual = 0.000722075, No Iterations 8
GAMG:  Solving for p, Initial residual = 0.00612098, Final residual = 5.23191e-05, No Iterations 14
GAMG:  Solving for p, Initial residual = 0.000676045, Final residual = 6.55152e-06, No Iterations 16
time step continuity errors : sum local = 0.000344022, global = 1.67868e-06, cumulative = -0.000536593
smoothSolver:  Solving for omega, Initial residual = 0.00131459, Final residual = 8.77776e-05, No Iterations 3
smoothSolver:  Solving for k, Initial residual = 0.0172115, Final residual = 0.00124963, No Iterations 3
ExecutionTime = 77.29 s  ClockTime = 80 s

forces forces write:
    Sum of forces
        Total    : (0.697803 0.180594 0.76337)
        Pressure : (0.647615 0.177587 0.761795)
        Viscous  : (0.0501874 0.00300744 0.00157496)
    Sum of moments
        Total    : (-0.0262688 -7.67213 1.82132)
        Pressure : (-0.0260652 -7.65932 1.78977)
        Viscous  : (-0.000203534 -0.0128137 0.0315558)
    writing force and moment files.

Time = 40

smoothSolver:  Solving for Ux, Initial residual = 0.0440448, Final residual = 0.0040509, No Iterations 6
smoothSolver:  Solving for Uy, Initial residual = 0.109479, Final residual = 0.00939839, No Iterations 7
smoothSolver:  Solving for Uz, Initial residual = 0.084189, Final residual = 0.00670525, No Iterations 7
GAMG:  Solving for p, Initial residual = 0.0696306, Final residual = 0.000689035, No Iterations 8
GAMG:  Solving for p, Initial residual = 0.00585301, Final residual = 5.29206e-05, No Iterations 14
GAMG:  Solving for p, Initial residual = 0.000650875, Final residual = 5.68503e-06, No Iterations 17
time step continuity errors : sum local = 0.000287318, global = 1.52877e-06, cumulative = -0.000535064
smoothSolver:  Solving for omega, Initial residual = 0.00122528, Final residual = 8.34241e-05, No Iterations 3
smoothSolver:  Solving for k, Initial residual = 0.0165587, Final residual = 0.00123915, No Iterations 3
ExecutionTime = 79.28 s  ClockTime = 82 s

forces forces write:
    Sum of forces
        Total    : (0.694468 0.119053 0.778047)
        Pressure : (0.643971 0.116203 0.776231)
        Viscous  : (0.0504979 0.00285005 0.00181646)
    Sum of moments
        Total    : (-0.0238845 -7.82281 1.20267)
        Pressure : (-0.023678 -7.80763 1.17275)
        Viscous  : (-0.000206507 -0.01518 0.0299181)
    writing force and moment files.

Time = 41

smoothSolver:  Solving for Ux, Initial residual = 0.0407888, Final residual = 0.00379286, No Iterations 6
smoothSolver:  Solving for Uy, Initial residual = 0.103818, Final residual = 0.00891308, No Iterations 7
smoothSolver:  Solving for Uz, Initial residual = 0.0814138, Final residual = 0.00641718, No Iterations 7
GAMG:  Solving for p, Initial residual = 0.0675966, Final residual = 0.000531299, No Iterations 9
GAMG:  Solving for p, Initial residual = 0.00548164, Final residual = 4.83872e-05, No Iterations 14
GAMG:  Solving for p, Initial residual = 0.000605127, Final residual = 5.37947e-06, No Iterations 17
time step continuity errors : sum local = 0.000261884, global = 1.51134e-06, cumulative = -0.000533552
smoothSolver:  Solving for omega, Initial residual = 0.00114291, Final residual = 7.91151e-05, No Iterations 3
smoothSolver:  Solving for k, Initial residual = 0.0159499, Final residual = 0.00122384, No Iterations 3
ExecutionTime = 81.31 s  ClockTime = 84 s

forces forces write:
    Sum of forces
        Total    : (0.692144 0.0703104 0.788164)
        Pressure : (0.64126 0.0672045 0.785742)
        Viscous  : (0.0508839 0.00310593 0.00242165)
    Sum of moments
        Total    : (-0.0219357 -7.92814 0.713287)
        Pressure : (-0.0216981 -7.90691 0.680802)
        Viscous  : (-0.000237612 -0.0212232 0.0324849)
    writing force and moment files.

Time = 42

smoothSolver:  Solving for Ux, Initial residual = 0.0380071, Final residual = 0.00356538, No Iterations 6
smoothSolver:  Solving for Uy, Initial residual = 0.0972066, Final residual = 0.0083506, No Iterations 7
smoothSolver:  Solving for Uz, Initial residual = 0.0788774, Final residual = 0.00616153, No Iterations 7
GAMG:  Solving for p, Initial residual = 0.0660085, Final residual = 0.000643228, No Iterations 8
GAMG:  Solving for p, Initial residual = 0.00535482, Final residual = 5.25279e-05, No Iterations 14
GAMG:  Solving for p, Initial residual = 0.000598774, Final residual = 5.79791e-06, No Iterations 17
time step continuity errors : sum local = 0.00027149, global = 1.61395e-06, cumulative = -0.000531938
smoothSolver:  Solving for omega, Initial residual = 0.00107303, Final residual = 7.53981e-05, No Iterations 3
smoothSolver:  Solving for k, Initial residual = 0.015403, Final residual = 0.00120974, No Iterations 3
ExecutionTime = 83.27 s  ClockTime = 86 s

forces forces write:
    Sum of forces
        Total    : (0.689308 0.0235278 0.792363)
        Pressure : (0.638053 0.0207072 0.789646)
        Viscous  : (0.0512549 0.00282063 0.0027169)
    Sum of moments
        Total    : (-0.0197774 -7.97385 0.243462)
        Pressure : (-0.0195452 -7.9497 0.213872)
        Viscous  : (-0.000232204 -0.0241472 0.0295897)
    writing force and moment files.

Time = 43

smoothSolver:  Solving for Ux, Initial residual = 0.0354385, Final residual = 0.00336755, No Iterations 6
smoothSolver:  Solving for Uy, Initial residual = 0.0917136, Final residual = 0.00787196, No Iterations 7
smoothSolver:  Solving for Uz, Initial residual = 0.0765311, Final residual = 0.00594064, No Iterations 7
GAMG:  Solving for p, Initial residual = 0.064659, Final residual = 0.000638174, No Iterations 8
GAMG:  Solving for p, Initial residual = 0.00516576, Final residual = 4.42738e-05, No Iterations 15
GAMG:  Solving for p, Initial residual = 0.000573861, Final residual = 5.548e-06, No Iterations 17
time step continuity errors : sum local = 0.00025, global = 1.47131e-06, cumulative = -0.000530467
smoothSolver:  Solving for omega, Initial residual = 0.00100588, Final residual = 7.15019e-05, No Iterations 3
smoothSolver:  Solving for k, Initial residual = 0.0149377, Final residual = 0.00119724, No Iterations 3
ExecutionTime = 85.29 s  ClockTime = 88 s

forces forces write:
    Sum of forces
        Total    : (0.684462 -0.0119555 0.789579)
        Pressure : (0.632737 -0.0147438 0.786267)
        Viscous  : (0.0517255 0.00278828 0.00331218)
    Sum of moments
        Total    : (-0.0181109 -7.94908 -0.112662)
        Pressure : (-0.0178679 -7.91895 -0.141931)
        Viscous  : (-0.000243093 -0.0301255 0.0292698)
    writing force and moment files.

Time = 44

smoothSolver:  Solving for Ux, Initial residual = 0.0330389, Final residual = 0.00319081, No Iterations 6
smoothSolver:  Solving for Uy, Initial residual = 0.0871966, Final residual = 0.0074526, No Iterations 7
smoothSolver:  Solving for Uz, Initial residual = 0.0744763, Final residual = 0.00575944, No Iterations 7
GAMG:  Solving for p, Initial residual = 0.0634239, Final residual = 0.000613208, No Iterations 8
GAMG:  Solving for p, Initial residual = 0.00501997, Final residual = 4.41771e-05, No Iterations 15
GAMG:  Solving for p, Initial residual = 0.000553518, Final residual = 4.74099e-06, No Iterations 18
time step continuity errors : sum local = 0.000204287, global = 1.10516e-06, cumulative = -0.000529362
smoothSolver:  Solving for omega, Initial residual = 0.000946072, Final residual = 6.79673e-05, No Iterations 3
smoothSolver:  Solving for k, Initial residual = 0.0145516, Final residual = 0.00118517, No Iterations 3
ExecutionTime = 87.34 s  ClockTime = 90 s

forces forces write:
    Sum of forces
        Total    : (0.67764 -0.0425532 0.779698)
        Pressure : (0.625492 -0.045118 0.776149)
        Viscous  : (0.0521484 0.00256485 0.0035494)
    Sum of moments
        Total    : (-0.0164587 -7.85226 -0.419771)
        Pressure : (-0.0162214 -7.81976 -0.446795)
        Viscous  : (-0.000237327 -0.032502 0.0270248)
    writing force and moment files.

Time = 45

smoothSolver:  Solving for Ux, Initial residual = 0.0307941, Final residual = 0.00301936, No Iterations 6
smoothSolver:  Solving for Uy, Initial residual = 0.0836347, Final residual = 0.00707477, No Iterations 7
smoothSolver:  Solving for Uz, Initial residual = 0.0727808, Final residual = 0.00560447, No Iterations 7
GAMG:  Solving for p, Initial residual = 0.0624892, Final residual = 0.000611067, No Iterations 8
GAMG:  Solving for p, Initial residual = 0.00491522, Final residual = 4.51329e-05, No Iterations 15
GAMG:  Solving for p, Initial residual = 0.000538739, Final residual = 4.7607e-06, No Iterations 18
time step continuity errors : sum local = 0.000196051, global = 4.52335e-07, cumulative = -0.00052891
smoothSolver:  Solving for omega, Initial residual = 0.000891477, Final residual = 6.45742e-05, No Iterations 3
smoothSolver:  Solving for k, Initial residual = 0.0142005, Final residual = 0.00117061, No Iterations 3
ExecutionTime = 89.36 s  ClockTime = 92 s

forces forces write:
    Sum of forces
        Total    : (0.668623 -0.0647176 0.763337)
        Pressure : (0.615926 -0.067074 0.759274)
        Viscous  : (0.0526971 0.00235641 0.00406324)
    Sum of moments
        Total    : (-0.0150905 -7.68945 -0.641983)
        Pressure : (-0.0148604 -7.65176 -0.66693)
        Viscous  : (-0.000230083 -0.0376871 0.0249471)
    writing force and moment files.

Time = 46

smoothSolver:  Solving for Ux, Initial residual = 0.0287871, Final residual = 0.00285038, No Iterations 6
smoothSolver:  Solving for Uy, Initial residual = 0.080722, Final residual = 0.00674049, No Iterations 7
smoothSolver:  Solving for Uz, Initial residual = 0.0713168, Final residual = 0.00545377, No Iterations 7
GAMG:  Solving for p, Initial residual = 0.0618506, Final residual = 0.00059122, No Iterations 8
GAMG:  Solving for p, Initial residual = 0.00485417, Final residual = 4.4334e-05, No Iterations 15
GAMG:  Solving for p, Initial residual = 0.000521417, Final residual = 4.64062e-06, No Iterations 18
time step continuity errors : sum local = 0.000181836, global = -4.32595e-06, cumulative = -0.000533236
smoothSolver:  Solving for omega, Initial residual = 0.000844177, Final residual = 6.17375e-05, No Iterations 3
smoothSolver:  Solving for k, Initial residual = 0.0138622, Final residual = 0.00115466, No Iterations 3
ExecutionTime = 91.43 s  ClockTime = 94 s

forces forces write:
    Sum of forces
        Total    : (0.657013 -0.0803627 0.738519)
        Pressure : (0.603795 -0.0824554 0.734259)
        Viscous  : (0.0532175 0.00209271 0.00425945)
    Sum of moments
        Total    : (-0.0138063 -7.44048 -0.798583)
        Pressure : (-0.0135889 -7.40081 -0.820893)
        Viscous  : (-0.000217408 -0.0396678 0.0223098)
    writing force and moment files.

Time = 47

smoothSolver:  Solving for Ux, Initial residual = 0.0271083, Final residual = 0.00269649, No Iterations 6
smoothSolver:  Solving for Uy, Initial residual = 0.0783179, Final residual = 0.0064501, No Iterations 7
smoothSolver:  Solving for Uz, Initial residual = 0.0701017, Final residual = 0.00530705, No Iterations 7
GAMG:  Solving for p, Initial residual = 0.0613132, Final residual = 0.000591841, No Iterations 8
GAMG:  Solving for p, Initial residual = 0.00482802, Final residual = 4.31677e-05, No Iterations 15
GAMG:  Solving for p, Initial residual = 0.000512413, Final residual = 4.97173e-06, No Iterations 17
time step continuity errors : sum local = 0.000185289, global = -3.1138e-06, cumulative = -0.000536349
smoothSolver:  Solving for omega, Initial residual = 0.000798072, Final residual = 5.88536e-05, No Iterations 3
smoothSolver:  Solving for k, Initial residual = 0.0135404, Final residual = 0.00113608, No Iterations 3
ExecutionTime = 93.49 s  ClockTime = 96 s

forces forces write:
    Sum of forces
        Total    : (0.642957 -0.0876662 0.704038)
        Pressure : (0.58905 -0.0895412 0.699444)
        Viscous  : (0.0539069 0.001875 0.00459352)
    Sum of moments
        Total    : (-0.0126934 -7.09305 -0.871176)
        Pressure : (-0.0124887 -7.05002 -0.891321)
        Viscous  : (-0.000204683 -0.0430283 0.0201452)
    writing force and moment files.

Time = 48

smoothSolver:  Solving for Ux, Initial residual = 0.0257137, Final residual = 0.00255492, No Iterations 6
smoothSolver:  Solving for Uy, Initial residual = 0.0761165, Final residual = 0.00619806, No Iterations 7
smoothSolver:  Solving for Uz, Initial residual = 0.0689742, Final residual = 0.00517438, No Iterations 7
GAMG:  Solving for p, Initial residual = 0.0607758, Final residual = 0.00058186, No Iterations 8
GAMG:  Solving for p, Initial residual = 0.00484364, Final residual = 4.33851e-05, No Iterations 15
GAMG:  Solving for p, Initial residual = 0.000511644, Final residual = 4.98337e-06, No Iterations 17
time step continuity errors : sum local = 0.000175737, global = -2.64446e-06, cumulative = -0.000538994
smoothSolver:  Solving for omega, Initial residual = 0.00075771, Final residual = 5.61679e-05, No Iterations 3
smoothSolver:  Solving for k, Initial residual = 0.0132229, Final residual = 0.00111565, No Iterations 3
ExecutionTime = 95.51 s  ClockTime = 98 s

forces forces write:
    Sum of forces
        Total    : (0.625924 -0.0886246 0.658598)
        Pressure : (0.571366 -0.0902691 0.65391)
        Viscous  : (0.0545586 0.00164456 0.00468826)
    Sum of moments
        Total    : (-0.0115831 -6.63405 -0.879899)
        Pressure : (-0.0113933 -6.59008 -0.897755)
        Viscous  : (-0.000189777 -0.0439658 0.0178562)
    writing force and moment files.

Time = 49

smoothSolver:  Solving for Ux, Initial residual = 0.024536, Final residual = 0.00242744, No Iterations 6
smoothSolver:  Solving for Uy, Initial residual = 0.074023, Final residual = 0.0059726, No Iterations 7
smoothSolver:  Solving for Uz, Initial residual = 0.0678512, Final residual = 0.00676412, No Iterations 6
GAMG:  Solving for p, Initial residual = 0.0600425, Final residual = 0.000576565, No Iterations 8
GAMG:  Solving for p, Initial residual = 0.00482263, Final residual = 4.40364e-05, No Iterations 15
GAMG:  Solving for p, Initial residual = 0.000513938, Final residual = 5.10364e-06, No Iterations 17
time step continuity errors : sum local = 0.000170574, global = -2.36717e-06, cumulative = -0.000541361
smoothSolver:  Solving for omega, Initial residual = 0.000715978, Final residual = 5.34627e-05, No Iterations 3
smoothSolver:  Solving for k, Initial residual = 0.0129154, Final residual = 0.00109415, No Iterations 3
ExecutionTime = 97.54 s  ClockTime = 100 s

forces forces write:
    Sum of forces
        Total    : (0.606687 -0.0847749 0.605601)
        Pressure : (0.551437 -0.0862624 0.600854)
        Viscous  : (0.0552509 0.00148746 0.00474771)
    Sum of moments
        Total    : (-0.0105149 -6.09801 -0.840283)
        Pressure : (-0.0103378 -6.05346 -0.856594)
        Viscous  : (-0.000177098 -0.0445437 0.0163112)
    writing force and moment files.

Time = 50

smoothSolver:  Solving for Ux, Initial residual = 0.023481, Final residual = 0.00231265, No Iterations 6
smoothSolver:  Solving for Uy, Initial residual = 0.0719388, Final residual = 0.00574494, No Iterations 7
smoothSolver:  Solving for Uz, Initial residual = 0.0672154, Final residual = 0.00503506, No Iterations 7
GAMG:  Solving for p, Initial residual = 0.0596972, Final residual = 0.000573127, No Iterations 8
GAMG:  Solving for p, Initial residual = 0.00487377, Final residual = 4.4455e-05, No Iterations 15
GAMG:  Solving for p, Initial residual = 0.000523102, Final residual = 5.20454e-06, No Iterations 17
time step continuity errors : sum local = 0.000164662, global = -2.14243e-06, cumulative = -0.000543503
smoothSolver:  Solving for omega, Initial residual = 0.000682669, Final residual = 5.12357e-05, No Iterations 3
smoothSolver:  Solving for k, Initial residual = 0.0126136, Final residual = 0.00107207, No Iterations 3
ExecutionTime = 99.57 s  ClockTime = 102 s

forces forces write:
    Sum of forces
        Total    : (0.586073 -0.0770989 0.543755)
        Pressure : (0.530071 -0.0784143 0.539131)
        Viscous  : (0.0560016 0.00131536 0.00462433)
    Sum of moments
        Total    : (-0.00934635 -5.47197 -0.762323)
        Pressure : (-0.00918361 -5.42871 -0.776939)
        Viscous  : (-0.000162741 -0.0432631 0.0146165)
    writing force and moment files.

Time = 51

smoothSolver:  Solving for Ux, Initial residual = 0.0225287, Final residual = 0.00221581, No Iterations 6
smoothSolver:  Solving for Uy, Initial residual = 0.0704159, Final residual = 0.0055906, No Iterations 7
smoothSolver:  Solving for Uz, Initial residual = 0.0659619, Final residual = 0.00654816, No Iterations 6
GAMG:  Solving for p, Initial residual = 0.0588659, Final residual = 0.000460906, No Iterations 9
GAMG:  Solving for p, Initial residual = 0.004774, Final residual = 4.75598e-05, No Iterations 14
GAMG:  Solving for p, Initial residual = 0.000510363, Final residual = 4.44049e-06, No Iterations 18
time step continuity errors : sum local = 0.00013341, global = -1.56438e-06, cumulative = -0.000545068
smoothSolver:  Solving for omega, Initial residual = 0.00065322, Final residual = 4.90913e-05, No Iterations 3
smoothSolver:  Solving for k, Initial residual = 0.0123016, Final residual = 0.00104906, No Iterations 3
ExecutionTime = 101.67 s  ClockTime = 104 s

forces forces write:
    Sum of forces
        Total    : (0.564307 -0.0691527 0.48215)
        Pressure : (0.50764 -0.0702977 0.477692)
        Viscous  : (0.0566678 0.00114502 0.0044582)
    Sum of moments
        Total    : (-0.00821167 -4.84828 -0.681918)
        Pressure : (-0.00806122 -4.80673 -0.694852)
        Viscous  : (-0.000150448 -0.041551 0.012934)
    writing force and moment files.

Time = 52

smoothSolver:  Solving for Ux, Initial residual = 0.0215701, Final residual = 0.00212049, No Iterations 6
smoothSolver:  Solving for Uy, Initial residual = 0.0688271, Final residual = 0.00543801, No Iterations 7
smoothSolver:  Solving for Uz, Initial residual = 0.0652085, Final residual = 0.006507, No Iterations 6
GAMG:  Solving for p, Initial residual = 0.0581185, Final residual = 0.000470534, No Iterations 9
GAMG:  Solving for p, Initial residual = 0.00475135, Final residual = 4.10901e-05, No Iterations 15
GAMG:  Solving for p, Initial residual = 0.000504777, Final residual = 4.81834e-06, No Iterations 17
time step continuity errors : sum local = 0.000138074, global = -1.40256e-06, cumulative = -0.00054647
smoothSolver:  Solving for omega, Initial residual = 0.000628673, Final residual = 4.72878e-05, No Iterations 3
smoothSolver:  Solving for k, Initial residual = 0.0120022, Final residual = 0.00102494, No Iterations 3
ExecutionTime = 103.69 s  ClockTime = 106 s

forces forces write:
    Sum of forces
        Total    : (0.543817 -0.0619095 0.423898)
        Pressure : (0.48649 -0.062863 0.419736)
        Viscous  : (0.0573268 0.000953577 0.00416226)
    Sum of moments
        Total    : (-0.00710453 -4.25862 -0.60888)
        Pressure : (-0.00696704 -4.22011 -0.619914)
        Viscous  : (-0.00013749 -0.0385157 0.0110336)
    writing force and moment files.

Time = 53

smoothSolver:  Solving for Ux, Initial residual = 0.0206076, Final residual = 0.00203352, No Iterations 6
smoothSolver:  Solving for Uy, Initial residual = 0.0673863, Final residual = 0.0053273, No Iterations 7
smoothSolver:  Solving for Uz, Initial residual = 0.0641913, Final residual = 0.00488137, No Iterations 7
GAMG:  Solving for p, Initial residual = 0.0574206, Final residual = 0.000491064, No Iterations 9
GAMG:  Solving for p, Initial residual = 0.00473393, Final residual = 4.40537e-05, No Iterations 15
GAMG:  Solving for p, Initial residual = 0.000505682, Final residual = 4.4628e-06, No Iterations 18
time step continuity errors : sum local = 0.000121845, global = -9.51067e-07, cumulative = -0.000547421
smoothSolver:  Solving for omega, Initial residual = 0.000608865, Final residual = 4.56408e-05, No Iterations 3
smoothSolver:  Solving for k, Initial residual = 0.0116797, Final residual = 0.000999148, No Iterations 3
ExecutionTime = 105.8 s  ClockTime = 108 s

forces forces write:
    Sum of forces
        Total    : (0.524336 -0.0554859 0.373749)
        Pressure : (0.466548 -0.0562644 0.369849)
        Viscous  : (0.0577874 0.00077856 0.0038997)
    Sum of moments
        Total    : (-0.00615886 -3.75139 -0.544353)
        Pressure : (-0.00603267 -3.71556 -0.553648)
        Viscous  : (-0.00012619 -0.0358247 0.00929489)
    writing force and moment files.

Time = 54

smoothSolver:  Solving for Ux, Initial residual = 0.0196416, Final residual = 0.00196254, No Iterations 6
smoothSolver:  Solving for Uy, Initial residual = 0.0661757, Final residual = 0.00527773, No Iterations 7
smoothSolver:  Solving for Uz, Initial residual = 0.062481, Final residual = 0.00484126, No Iterations 7
GAMG:  Solving for p, Initial residual = 0.0562387, Final residual = 0.000500124, No Iterations 9
GAMG:  Solving for p, Initial residual = 0.00464255, Final residual = 4.55101e-05, No Iterations 15
GAMG:  Solving for p, Initial residual = 0.000495317, Final residual = 4.69522e-06, No Iterations 18
time step continuity errors : sum local = 0.000122384, global = -2.29591e-07, cumulative = -0.000547651
smoothSolver:  Solving for omega, Initial residual = 0.000588791, Final residual = 4.39646e-05, No Iterations 3
smoothSolver:  Solving for k, Initial residual = 0.0113614, Final residual = 0.000973277, No Iterations 3
ExecutionTime = 107.9 s  ClockTime = 111 s

forces forces write:
    Sum of forces
        Total    : (0.507967 -0.0514894 0.337546)
        Pressure : (0.4497 -0.0521119 0.333954)
        Viscous  : (0.0582666 0.00062242 0.00359263)
    Sum of moments
        Total    : (-0.00546444 -3.38574 -0.504489)
        Pressure : (-0.00534789 -3.35305 -0.512231)
        Viscous  : (-0.000116543 -0.0326836 0.00774113)
    writing force and moment files.

Time = 55

smoothSolver:  Solving for Ux, Initial residual = 0.0186879, Final residual = 0.00143402, No Iterations 7
smoothSolver:  Solving for Uy, Initial residual = 0.0647774, Final residual = 0.00523846, No Iterations 7
smoothSolver:  Solving for Uz, Initial residual = 0.0607665, Final residual = 0.00484672, No Iterations 7
GAMG:  Solving for p, Initial residual = 0.0548495, Final residual = 0.000493508, No Iterations 9
GAMG:  Solving for p, Initial residual = 0.00455505, Final residual = 4.39778e-05, No Iterations 15
GAMG:  Solving for p, Initial residual = 0.000483638, Final residual = 4.44697e-06, No Iterations 18
time step continuity errors : sum local = 0.00011008, global = -6.10475e-07, cumulative = -0.000548262
smoothSolver:  Solving for omega, Initial residual = 0.000569176, Final residual = 4.25058e-05, No Iterations 3
bounding omega, min: -187.835 max: 841736 average: 5821.84
smoothSolver:  Solving for k, Initial residual = 0.0110345, Final residual = 0.000948298, No Iterations 3
ExecutionTime = 110.02 s  ClockTime = 113 s

forces forces write:
    Sum of forces
        Total    : (0.49517 -0.0481583 0.312619)
        Pressure : (0.436465 -0.048645 0.309222)
        Viscous  : (0.0587052 0.000486718 0.00339684)
    Sum of moments
        Total    : (-0.00505637 -3.1347 -0.471432)
        Pressure : (-0.004947 -3.10403 -0.477822)
        Viscous  : (-0.000109368 -0.0306773 0.00638994)
    writing force and moment files.

Time = 56

smoothSolver:  Solving for Ux, Initial residual = 0.0176875, Final residual = 0.00139715, No Iterations 7
smoothSolver:  Solving for Uy, Initial residual = 0.0632822, Final residual = 0.00522604, No Iterations 7
smoothSolver:  Solving for Uz, Initial residual = 0.0590369, Final residual = 0.00489474, No Iterations 7
GAMG:  Solving for p, Initial residual = 0.0535145, Final residual = 0.000469008, No Iterations 9
GAMG:  Solving for p, Initial residual = 0.00439702, Final residual = 4.08776e-05, No Iterations 15
GAMG:  Solving for p, Initial residual = 0.000459664, Final residual = 4.21322e-06, No Iterations 18
time step continuity errors : sum local = 9.94177e-05, global = -2.5335e-07, cumulative = -0.000548515
smoothSolver:  Solving for omega, Initial residual = 0.000547198, Final residual = 4.1134e-05, No Iterations 3
[...]
smoothSolver:  Solving for k, Initial residual = 0.000984393, Final residual = 8.95555e-05, No Iterations 3
ExecutionTime = 894.03 s  ClockTime = 916 s

forces forces write:
    Sum of forces
        Total    : (0.419902 -0.00240243 0.360021)
        Pressure : (0.357057 -0.00247286 0.356058)
        Viscous  : (0.0628458 7.04273e-05 0.0039628)
    Sum of moments
        Total    : (-0.0090828 -3.62703 -0.0138001)
        Pressure : (-0.00897351 -3.59045 -0.016082)
        Viscous  : (-0.000109295 -0.0365872 0.00228188)
    writing force and moment files.

fieldAverage fieldAverage write:
    Calculating averages

Time = 488

smoothSolver:  Solving for Ux, Initial residual = 0.00186823, Final residual = 0.000152183, No Iterations 9
smoothSolver:  Solving for Uy, Initial residual = 0.01104, Final residual = 0.000880919, No Iterations 9
smoothSolver:  Solving for Uz, Initial residual = 0.0100478, Final residual = 0.000879807, No Iterations 9
GAMG:  Solving for p, Initial residual = 0.00716787, Final residual = 6.57877e-05, No Iterations 7
GAMG:  Solving for p, Initial residual = 0.00080371, Final residual = 7.57269e-06, No Iterations 8
GAMG:  Solving for p, Initial residual = 6.77439e-05, Final residual = 6.54012e-07, No Iterations 12
time step continuity errors : sum local = 6.58669e-06, global = 3.57936e-08, cumulative = -0.000555568
smoothSolver:  Solving for omega, Initial residual = 4.7399e-05, Final residual = 4.13523e-06, No Iterations 3
smoothSolver:  Solving for k, Initial residual = 0.000978921, Final residual = 8.97847e-05, No Iterations 3
ExecutionTime = 895.9 s  ClockTime = 918 s

forces forces write:
    Sum of forces
        Total    : (0.41811 -0.000639191 0.339618)
        Pressure : (0.355246 -0.000731015 0.335782)
        Viscous  : (0.0628645 9.18234e-05 0.00383589)
    Sum of moments
        Total    : (-0.00866648 -3.41986 0.00400894)
        Pressure : (-0.00855889 -3.38457 0.00150929)
        Viscous  : (-0.00010759 -0.0352941 0.00249964)
    writing force and moment files.

fieldAverage fieldAverage write:
    Calculating averages

Time = 489

smoothSolver:  Solving for Ux, Initial residual = 0.00189226, Final residual = 0.000152706, No Iterations 9
smoothSolver:  Solving for Uy, Initial residual = 0.0112696, Final residual = 0.000898181, No Iterations 9
smoothSolver:  Solving for Uz, Initial residual = 0.0100494, Final residual = 0.000871169, No Iterations 9
GAMG:  Solving for p, Initial residual = 0.00715975, Final residual = 6.34605e-05, No Iterations 7
GAMG:  Solving for p, Initial residual = 0.000799268, Final residual = 7.08673e-06, No Iterations 8
GAMG:  Solving for p, Initial residual = 6.70305e-05, Final residual = 5.99726e-07, No Iterations 12
time step continuity errors : sum local = 6.05621e-06, global = -1.79863e-08, cumulative = -0.000555586
smoothSolver:  Solving for omega, Initial residual = 4.74047e-05, Final residual = 4.02153e-06, No Iterations 3
smoothSolver:  Solving for k, Initial residual = 0.000977427, Final residual = 8.82226e-05, No Iterations 3
ExecutionTime = 897.84 s  ClockTime = 920 s

forces forces write:
    Sum of forces
        Total    : (0.41588 0.00082637 0.319315)
        Pressure : (0.352994 0.000710406 0.315637)
        Viscous  : (0.0628863 0.000115964 0.00367729)
    Sum of moments
        Total    : (-0.00820851 -3.21379 0.0187772)
        Pressure : (-0.00810363 -3.18011 0.0160318)
        Viscous  : (-0.000104876 -0.0336787 0.00274543)
    writing force and moment files.

fieldAverage fieldAverage write:
    Calculating averages

Time = 490

smoothSolver:  Solving for Ux, Initial residual = 0.00191692, Final residual = 0.000153407, No Iterations 9
smoothSolver:  Solving for Uy, Initial residual = 0.0114635, Final residual = 0.000914298, No Iterations 9
smoothSolver:  Solving for Uz, Initial residual = 0.0101077, Final residual = 0.000873811, No Iterations 9
GAMG:  Solving for p, Initial residual = 0.0071462, Final residual = 6.00134e-05, No Iterations 7
GAMG:  Solving for p, Initial residual = 0.000779234, Final residual = 6.64818e-06, No Iterations 8
GAMG:  Solving for p, Initial residual = 6.63472e-05, Final residual = 5.42634e-07, No Iterations 12
time step continuity errors : sum local = 5.49008e-06, global = -4.99054e-08, cumulative = -0.000555636
smoothSolver:  Solving for omega, Initial residual = 4.72835e-05, Final residual = 3.88889e-06, No Iterations 3
smoothSolver:  Solving for k, Initial residual = 0.000986782, Final residual = 8.62005e-05, No Iterations 3
ExecutionTime = 899.72 s  ClockTime = 922 s

forces forces write:
    Sum of forces
        Total    : (0.413758 0.00150572 0.303384)
        Pressure : (0.350853 0.00137146 0.299859)
        Viscous  : (0.0629051 0.000134253 0.00352553)
    Sum of moments
        Total    : (-0.00779572 -3.05217 0.025575)
        Pressure : (-0.00769405 -3.02003 0.0226431)
        Viscous  : (-0.000101667 -0.0321332 0.00293191)
    writing force and moment files.

fieldAverage fieldAverage write:
    Calculating averages

Time = 491

smoothSolver:  Solving for Ux, Initial residual = 0.00192761, Final residual = 0.000153605, No Iterations 9
smoothSolver:  Solving for Uy, Initial residual = 0.0115646, Final residual = 0.000924188, No Iterations 9
smoothSolver:  Solving for Uz, Initial residual = 0.0101814, Final residual = 0.00088721, No Iterations 9
GAMG:  Solving for p, Initial residual = 0.00713133, Final residual = 5.95211e-05, No Iterations 7
GAMG:  Solving for p, Initial residual = 0.000758798, Final residual = 6.67675e-06, No Iterations 8
GAMG:  Solving for p, Initial residual = 6.65688e-05, Final residual = 6.61104e-07, No Iterations 11
time step continuity errors : sum local = 6.69424e-06, global = -4.5789e-08, cumulative = -0.000555682
smoothSolver:  Solving for omega, Initial residual = 4.72935e-05, Final residual = 3.84412e-06, No Iterations 3
smoothSolver:  Solving for k, Initial residual = 0.000999997, Final residual = 8.47296e-05, No Iterations 3
ExecutionTime = 901.56 s  ClockTime = 924 s

forces forces write:
    Sum of forces
        Total    : (0.412369 0.00123634 0.294908)
        Pressure : (0.34945 0.00109485 0.291498)
        Viscous  : (0.0629184 0.000141484 0.0034102)
    Sum of moments
        Total    : (-0.00750712 -2.96626 0.0227785)
        Pressure : (-0.00740864 -2.9353 0.0197723)
        Viscous  : (-9.84812e-05 -0.030959 0.00300614)
    writing force and moment files.

fieldAverage fieldAverage write:
    Calculating averages

Time = 492

smoothSolver:  Solving for Ux, Initial residual = 0.00192357, Final residual = 0.000153102, No Iterations 9
smoothSolver:  Solving for Uy, Initial residual = 0.0115153, Final residual = 0.000919136, No Iterations 9
smoothSolver:  Solving for Uz, Initial residual = 0.01018, Final residual = 0.000894569, No Iterations 9
GAMG:  Solving for p, Initial residual = 0.00718468, Final residual = 6.21204e-05, No Iterations 7
GAMG:  Solving for p, Initial residual = 0.00075375, Final residual = 6.95514e-06, No Iterations 8
GAMG:  Solving for p, Initial residual = 6.73441e-05, Final residual = 5.13994e-07, No Iterations 12
time step continuity errors : sum local = 5.20291e-06, global = -1.39697e-07, cumulative = -0.000555822
smoothSolver:  Solving for omega, Initial residual = 4.73916e-05, Final residual = 3.91625e-06, No Iterations 3
smoothSolver:  Solving for k, Initial residual = 0.00100736, Final residual = 8.50241e-05, No Iterations 3
ExecutionTime = 903.42 s  ClockTime = 926 s

forces forces write:
    Sum of forces
        Total    : (0.412046 0.000173304 0.29517)
        Pressure : (0.349122 3.72761e-05 0.291818)
        Viscous  : (0.062924 0.000136028 0.00335206)
    Sum of moments
        Total    : (-0.00739605 -2.96904 0.0119752)
        Pressure : (-0.00730017 -2.93867 0.0090235)
        Viscous  : (-9.58795e-05 -0.0303677 0.00295174)
    writing force and moment files.

fieldAverage fieldAverage write:
    Calculating averages

Time = 493

smoothSolver:  Solving for Ux, Initial residual = 0.00190421, Final residual = 0.000151817, No Iterations 9
smoothSolver:  Solving for Uy, Initial residual = 0.0113276, Final residual = 0.000898676, No Iterations 9
smoothSolver:  Solving for Uz, Initial residual = 0.0100881, Final residual = 0.000888331, No Iterations 9
GAMG:  Solving for p, Initial residual = 0.00729363, Final residual = 6.41245e-05, No Iterations 7
GAMG:  Solving for p, Initial residual = 0.000758527, Final residual = 7.12911e-06, No Iterations 8
GAMG:  Solving for p, Initial residual = 6.75904e-05, Final residual = 6.67839e-07, No Iterations 11
time step continuity errors : sum local = 6.75164e-06, global = -1.63362e-07, cumulative = -0.000555985
smoothSolver:  Solving for omega, Initial residual = 4.74122e-05, Final residual = 4.00616e-06, No Iterations 3
smoothSolver:  Solving for k, Initial residual = 0.00100634, Final residual = 8.69939e-05, No Iterations 3
ExecutionTime = 905.21 s  ClockTime = 927 s

forces forces write:
    Sum of forces
        Total    : (0.41285 -0.00133761 0.303676)
        Pressure : (0.349929 -0.00145845 0.300321)
        Viscous  : (0.0629206 0.000120842 0.00335466)
    Sum of moments
        Total    : (-0.00748039 -3.0555 -0.00332359)
        Pressure : (-0.00738616 -3.0251 -0.0061221)
        Viscous  : (-9.42353e-05 -0.0303951 0.00279851)
    writing force and moment files.

fieldAverage fieldAverage write:
    Calculating averages

Time = 494

smoothSolver:  Solving for Ux, Initial residual = 0.00187882, Final residual = 0.000150267, No Iterations 9
smoothSolver:  Solving for Uy, Initial residual = 0.0111501, Final residual = 0.000883113, No Iterations 9
smoothSolver:  Solving for Uz, Initial residual = 0.0099144, Final residual = 0.000868339, No Iterations 9
GAMG:  Solving for p, Initial residual = 0.00740735, Final residual = 6.47233e-05, No Iterations 7
GAMG:  Solving for p, Initial residual = 0.000775784, Final residual = 7.13652e-06, No Iterations 8
GAMG:  Solving for p, Initial residual = 6.79321e-05, Final residual = 6.10013e-07, No Iterations 12
time step continuity errors : sum local = 6.15498e-06, global = -2.33384e-08, cumulative = -0.000556009
smoothSolver:  Solving for omega, Initial residual = 4.7083e-05, Final residual = 4.04464e-06, No Iterations 3
smoothSolver:  Solving for k, Initial residual = 0.000998894, Final residual = 8.86169e-05, No Iterations 3
ExecutionTime = 907.1 s  ClockTime = 929 s

forces forces write:
    Sum of forces
        Total    : (0.414497 -0.00290012 0.318524)
        Pressure : (0.351591 -0.00300061 0.31511)
        Viscous  : (0.0629068 0.000100495 0.00341398)
    Sum of moments
        Total    : (-0.00774202 -3.20628 -0.0191095)
        Pressure : (-0.00764812 -3.17528 -0.0217019)
        Viscous  : (-9.39005e-05 -0.0310005 0.00259245)
    writing force and moment files.

fieldAverage fieldAverage write:
    Calculating averages

Time = 495

smoothSolver:  Solving for Ux, Initial residual = 0.00187087, Final residual = 0.000149285, No Iterations 9
smoothSolver:  Solving for Uy, Initial residual = 0.0111744, Final residual = 0.00088493, No Iterations 9
smoothSolver:  Solving for Uz, Initial residual = 0.00980843, Final residual = 0.000850832, No Iterations 9
GAMG:  Solving for p, Initial residual = 0.0074595, Final residual = 6.53675e-05, No Iterations 7
GAMG:  Solving for p, Initial residual = 0.000793857, Final residual = 7.1891e-06, No Iterations 8
GAMG:  Solving for p, Initial residual = 6.80108e-05, Final residual = 6.24515e-07, No Iterations 12
time step continuity errors : sum local = 6.28683e-06, global = -3.89751e-08, cumulative = -0.000556047
smoothSolver:  Solving for omega, Initial residual = 4.64279e-05, Final residual = 4.00278e-06, No Iterations 3
smoothSolver:  Solving for k, Initial residual = 0.000984017, Final residual = 8.92684e-05, No Iterations 3
ExecutionTime = 908.9 s  ClockTime = 931 s

forces forces write:
    Sum of forces
        Total    : (0.416568 -0.0042246 0.337028)
        Pressure : (0.353684 -0.00430371 0.333512)
        Viscous  : (0.0628849 7.91113e-05 0.00351625)
    Sum of moments
        Total    : (-0.0081323 -3.39412 -0.0324628)
        Pressure : (-0.00803745 -3.36208 -0.0348379)
        Viscous  : (-9.48544e-05 -0.0320438 0.00237513)
    writing force and moment files.

fieldAverage fieldAverage write:
    Calculating averages

Time = 496

smoothSolver:  Solving for Ux, Initial residual = 0.00188119, Final residual = 0.000149963, No Iterations 9
smoothSolver:  Solving for Uy, Initial residual = 0.0113304, Final residual = 0.00089786, No Iterations 9
smoothSolver:  Solving for Uz, Initial residual = 0.00984766, Final residual = 0.000848988, No Iterations 9
GAMG:  Solving for p, Initial residual = 0.0074293, Final residual = 6.45993e-05, No Iterations 7
GAMG:  Solving for p, Initial residual = 0.000793569, Final residual = 7.19862e-06, No Iterations 8
GAMG:  Solving for p, Initial residual = 6.69967e-05, Final residual = 6.12922e-07, No Iterations 12
time step continuity errors : sum local = 6.15568e-06, global = -7.34499e-09, cumulative = -0.000556055
smoothSolver:  Solving for omega, Initial residual = 4.56037e-05, Final residual = 3.89093e-06, No Iterations 3
smoothSolver:  Solving for k, Initial residual = 0.000969839, Final residual = 8.81296e-05, No Iterations 3
ExecutionTime = 910.71 s  ClockTime = 933 s

forces forces write:
    Sum of forces
        Total    : (0.418686 -0.00516624 0.356179)
        Pressure : (0.355827 -0.00522531 0.352531)
        Viscous  : (0.0628587 5.90689e-05 0.0036471)
    Sum of moments
        Total    : (-0.00858283 -3.58847 -0.0419321)
        Pressure : (-0.00848592 -3.55509 -0.044103)
        Viscous  : (-9.69122e-05 -0.0333783 0.00217089)
    writing force and moment files.

fieldAverage fieldAverage write:
    Calculating averages

Time = 497

smoothSolver:  Solving for Ux, Initial residual = 0.00189668, Final residual = 0.000151407, No Iterations 9
smoothSolver:  Solving for Uy, Initial residual = 0.0114546, Final residual = 0.00091209, No Iterations 9
smoothSolver:  Solving for Uz, Initial residual = 0.0099615, Final residual = 0.000859773, No Iterations 9
GAMG:  Solving for p, Initial residual = 0.00732071, Final residual = 6.07368e-05, No Iterations 7
GAMG:  Solving for p, Initial residual = 0.000771832, Final residual = 6.80389e-06, No Iterations 8
GAMG:  Solving for p, Initial residual = 6.48405e-05, Final residual = 5.59306e-07, No Iterations 12
time step continuity errors : sum local = 5.60542e-06, global = 3.43045e-08, cumulative = -0.000556021
smoothSolver:  Solving for omega, Initial residual = 4.5006e-05, Final residual = 3.75519e-06, No Iterations 3
smoothSolver:  Solving for k, Initial residual = 0.000961736, Final residual = 8.52974e-05, No Iterations 3
ExecutionTime = 912.53 s  ClockTime = 935 s

forces forces write:
    Sum of forces
        Total    : (0.420554 -0.0056771 0.372808)
        Pressure : (0.35772 -0.00571946 0.369024)
        Viscous  : (0.0628334 4.23636e-05 0.0037844)
    Sum of moments
        Total    : (-0.00901228 -3.75719 -0.0470436)
        Pressure : (-0.00891269 -3.72241 -0.0490439)
        Viscous  : (-9.95936e-05 -0.0347786 0.00200022)
    writing force and moment files.

fieldAverage fieldAverage write:
    Calculating averages

Time = 498

smoothSolver:  Solving for Ux, Initial residual = 0.00190764, Final residual = 0.000152981, No Iterations 9
smoothSolver:  Solving for Uy, Initial residual = 0.0114974, Final residual = 0.000924422, No Iterations 9
smoothSolver:  Solving for Uz, Initial residual = 0.0101113, Final residual = 0.000883116, No Iterations 9
GAMG:  Solving for p, Initial residual = 0.00718329, Final residual = 5.76906e-05, No Iterations 7
GAMG:  Solving for p, Initial residual = 0.000742533, Final residual = 6.47441e-06, No Iterations 8
GAMG:  Solving for p, Initial residual = 6.27119e-05, Final residual = 5.19427e-07, No Iterations 12
time step continuity errors : sum local = 5.19805e-06, global = 3.16563e-08, cumulative = -0.000555989
smoothSolver:  Solving for omega, Initial residual = 4.48566e-05, Final residual = 3.68423e-06, No Iterations 3
smoothSolver:  Solving for k, Initial residual = 0.000967097, Final residual = 8.35902e-05, No Iterations 3
ExecutionTime = 914.31 s  ClockTime = 937 s

forces forces write:
    Sum of forces
        Total    : (0.421836 -0.00575695 0.384004)
        Pressure : (0.359023 -0.00578678 0.380099)
        Viscous  : (0.0628125 2.98303e-05 0.00390525)
    Sum of moments
        Total    : (-0.00934112 -3.87074 -0.0478036)
        Pressure : (-0.00923877 -3.83472 -0.0496755)
        Viscous  : (-0.00010235 -0.0360113 0.00187186)
    writing force and moment files.

fieldAverage fieldAverage write:
    Calculating averages

Time = 499

smoothSolver:  Solving for Ux, Initial residual = 0.00190793, Final residual = 0.000154228, No Iterations 9
smoothSolver:  Solving for Uy, Initial residual = 0.0114304, Final residual = 0.000926383, No Iterations 9
smoothSolver:  Solving for Uz, Initial residual = 0.0102287, Final residual = 0.00090348, No Iterations 9
GAMG:  Solving for p, Initial residual = 0.00710433, Final residual = 5.99069e-05, No Iterations 7
GAMG:  Solving for p, Initial residual = 0.000725709, Final residual = 6.71122e-06, No Iterations 8
GAMG:  Solving for p, Initial residual = 6.22627e-05, Final residual = 4.92085e-07, No Iterations 12
time step continuity errors : sum local = 4.92196e-06, global = 1.34155e-07, cumulative = -0.000555855
smoothSolver:  Solving for omega, Initial residual = 4.54961e-05, Final residual = 3.7489e-06, No Iterations 3
smoothSolver:  Solving for k, Initial residual = 0.000979846, Final residual = 8.39532e-05, No Iterations 3
ExecutionTime = 916.06 s  ClockTime = 938 s

forces forces write:
    Sum of forces
        Total    : (0.422237 -0.00538816 0.387491)
        Pressure : (0.359435 -0.00541119 0.383507)
        Viscous  : (0.0628011 2.303e-05 0.00398357)
    Sum of moments
        Total    : (-0.00950437 -3.90603 -0.0440406)
        Pressure : (-0.00939983 -3.86922 -0.0458424)
        Viscous  : (-0.000104537 -0.0368111 0.00180187)
    writing force and moment files.

fieldAverage fieldAverage write:
    Calculating averages

Time = 500

smoothSolver:  Solving for Ux, Initial residual = 0.00189265, Final residual = 0.000153952, No Iterations 9
smoothSolver:  Solving for Uy, Initial residual = 0.0112323, Final residual = 0.000910013, No Iterations 9
smoothSolver:  Solving for Uz, Initial residual = 0.010265, Final residual = 0.000911368, No Iterations 9
GAMG:  Solving for p, Initial residual = 0.00714258, Final residual = 6.44231e-05, No Iterations 7
GAMG:  Solving for p, Initial residual = 0.000736655, Final residual = 5.51758e-06, No Iterations 9
GAMG:  Solving for p, Initial residual = 6.28769e-05, Final residual = 5.68631e-07, No Iterations 11
time step continuity errors : sum local = 5.69155e-06, global = 5.49968e-09, cumulative = -0.000555849
smoothSolver:  Solving for omega, Initial residual = 4.63796e-05, Final residual = 3.91052e-06, No Iterations 3
smoothSolver:  Solving for k, Initial residual = 0.000988122, Final residual = 8.6057e-05, No Iterations 3
ExecutionTime = 917.97 s  ClockTime = 940 s

--> FOAM Warning : 
    From Foam::IOobjectList Foam::sampledSurfaces::preCheckFields()
    in file sampledSurface/sampledSurfaces/sampledSurfaces.C at line 112
    
Cannot find registered field matching 1(kMean)
forces forces write:
    Sum of forces
        Total    : (0.421712 -0.0045092 0.382175)
        Pressure : (0.358909 -0.00453275 0.378174)
        Viscous  : (0.0628029 2.35488e-05 0.00400192)
    Sum of moments
        Total    : (-0.00946821 -3.85201 -0.0351343)
        Pressure : (-0.00936246 -3.81501 -0.0369408)
        Viscous  : (-0.000105756 -0.037 0.00180654)
    writing force and moment files.

fieldAverage fieldAverage write:
    Calculating averages

    Writing average fields

End

Finalising parallel run
