/*---------------------------------------------------------------------------*\
| =========                 |                                                 |
| \\      /  F ield         | OpenFOAM: The Open Source CFD Toolbox           |
|  \\    /   O peration     | Version:  2406                                  |
|   \\  /    A nd           | Website:  www.openfoam.com                      |
|    \\/     M anipulation  |                                                 |
\*---------------------------------------------------------------------------*/
Build  : _630d60de3b-20240620 OPENFOAM=2406 version=v2406
Arch   : "LSB;label=32;scalar=64"
Exec   : decomposePar
Date   : Nov 21 2024
Time   : 19:07:49
Host   : MacBook-Air-de-Denis.local
PID    : 83261
I/O    : uncollated
Case   : /Users/df/Documents/3A/POLI48/OpenFoamSim/ahmedBetterShark
nProcs : 1
trapFpe: Floating point exception trapping enabled (FOAM_SIGFPE).
fileModificationChecking : Monitoring run-time modified files using timeStampMaster (fileModificationSkew 5, maxFileModificationPolls 20)
allowSystemOperations : Allowing user-supplied system call operations

// * * * * * * * * * * * * * * * * * * * * * * * * * * * * * * * * * * * * * //
Create time



Decomposing mesh

Create mesh

Calculating distribution of cells
Decomposition method scotch [4] (region region0)

Finished decomposition in 0.15 s

Calculating original mesh data

Distributing cells to processors

Distributing faces to processors

Distributing points to processors

Constructing processor meshes

Processor 0
    Number of cells = 10645
    Number of points = 12285
    Number of faces shared with processor 1 = 306
    Number of faces shared with processor 2 = 309
    Number of processor patches = 2
    Number of processor faces = 615
    Number of boundary faces = 2519

Processor 1
    Number of cells = 10642
    Number of points = 12258
    Number of faces shared with processor 0 = 306
    Number of processor patches = 1
    Number of processor faces = 306
    Number of boundary faces = 2782

Processor 2
    Number of cells = 10464
    Number of points = 12069
    Number of faces shared with processor 0 = 309
    Number of faces shared with processor 3 = 302
    Number of processor patches = 2
    Number of processor faces = 611
    Number of boundary faces = 2455

Processor 3
    Number of cells = 10443
    Number of points = 12041
    Number of faces shared with processor 2 = 302
    Number of processor patches = 1
    Number of processor faces = 302
    Number of boundary faces = 2750

Number of processor faces = 917
Max number of cells = 10645 (0.914822% above average 10548.5)
Max number of processor patches = 2 (33.3333% above average 1.5)
Max number of faces between processors = 615 (34.133% above average 458.5)

Time = 0

Processor 0: field transfer
Processor 1: field transfer
Processor 2: field transfer
Processor 3: field transfer

End

