/*---------------------------------------------------------------------------*\
| =========                 |                                                 |
| \\      /  F ield         | OpenFOAM: The Open Source CFD Toolbox           |
|  \\    /   O peration     | Version:  2406                                  |
|   \\  /    A nd           | Website:  www.openfoam.com                      |
|    \\/     M anipulation  |                                                 |
\*---------------------------------------------------------------------------*/
Build  : _630d60de3b-20240620 OPENFOAM=2406 version=v2406
Arch   : "LSB;label=32;scalar=64"
Exec   : decomposePar -latestTime
Date   : Nov 21 2024
Time   : 19:08:39
Host   : MacBook-Air-de-Denis.local
PID    : 83428
I/O    : uncollated
Case   : /Users/df/Documents/3A/POLI48/OpenFoamSim/ahmedBetterShark
nProcs : 1
trapFpe: Floating point exception trapping enabled (FOAM_SIGFPE).
fileModificationChecking : Monitoring run-time modified files using timeStampMaster (fileModificationSkew 5, maxFileModificationPolls 20)
allowSystemOperations : Allowing user-supplied system call operations

// * * * * * * * * * * * * * * * * * * * * * * * * * * * * * * * * * * * * * //
Create time



Decomposing mesh

Create mesh

Calculating distribution of cells
Decomposition method scotch [4] (region region0)

Finished decomposition in 1.43 s

Calculating original mesh data

Distributing cells to processors

Distributing faces to processors

Distributing points to processors

Constructing processor meshes

Processor 0
    Number of cells = 215386
    Number of points = 231447
    Number of faces shared with processor 1 = 4812
    Number of faces shared with processor 2 = 391
    Number of faces shared with processor 3 = 19
    Number of processor patches = 3
    Number of processor faces = 5222
    Number of boundary faces = 10394

Processor 1
    Number of cells = 213886
    Number of points = 232675
    Number of faces shared with processor 0 = 4812
    Number of faces shared with processor 2 = 196
    Number of faces shared with processor 3 = 5054
    Number of processor patches = 3
    Number of processor faces = 10062
    Number of boundary faces = 10185

Processor 2
    Number of cells = 216972
    Number of points = 240409
    Number of faces shared with processor 0 = 391
    Number of faces shared with processor 1 = 196
    Number of faces shared with processor 3 = 5397
    Number of processor patches = 3
    Number of processor faces = 5984
    Number of boundary faces = 17739

Processor 3
    Number of cells = 214341
    Number of points = 241430
    Number of faces shared with processor 0 = 19
    Number of faces shared with processor 1 = 5054
    Number of faces shared with processor 2 = 5397
    Number of processor patches = 3
    Number of processor faces = 10470
    Number of boundary faces = 19599

Number of processor faces = 15869
Max number of cells = 216972 (0.848609% above average 215146)
Max number of processor patches = 3 (0% above average 3)
Max number of faces between processors = 10470 (31.9554% above average 7934.5)

Time = 0

Processor 0: field transfer
Processor 1: field transfer
Processor 2: field transfer
Processor 3: field transfer

End

