/*---------------------------------------------------------------------------*\
| =========                 |                                                 |
| \\      /  F ield         | OpenFOAM: The Open Source CFD Toolbox           |
|  \\    /   O peration     | Version:  2406                                  |
|   \\  /    A nd           | Website:  www.openfoam.com                      |
|    \\/     M anipulation  |                                                 |
\*---------------------------------------------------------------------------*/
Build  : _630d60de3b-20240620 OPENFOAM=2406 version=v2406
Arch   : "LSB;label=32;scalar=64"
Exec   : simpleFoam -parallel
Date   : Nov 21 2024
Time   : 19:08:41
Host   : MacBook-Air-de-Denis.local
PID    : 83431
I/O    : uncollated
Case   : /Users/df/Documents/3A/POLI48/OpenFoamSim/ahmedBetterShark
nProcs : 4
Hosts  :
(
    (MacBook-Air-de-Denis.local 4)
)
Pstream initialized with:
    floatTransfer      : false
    maxCommsSize       : 0
    nProcsSimpleSum    : 0
    nonBlockingExchange: 0 (tuning: 0)
    exchange algorithm : 0
    commsType          : nonBlocking
    polling iterations : 0
trapFpe: Floating point exception trapping enabled (FOAM_SIGFPE).
fileModificationChecking : Monitoring run-time modified files using timeStampMaster (fileModificationSkew 5, maxFileModificationPolls 20)
allowSystemOperations : Allowing user-supplied system call operations

// * * * * * * * * * * * * * * * * * * * * * * * * * * * * * * * * * * * * * //
Create time

Create mesh for time = 0


SIMPLE: no convergence criteria found. Calculations will run for 500 steps.

Reading field p

Reading field U

Reading/calculating face flux field phi

Selecting incompressible transport model Newtonian
Selecting turbulence model type RAS
Selecting RAS turbulence model kOmegaSST
Selecting patchDistMethod meshWave
RAS
{
    RASModel        kOmegaSST;
    turbulence      on;
    printCoeffs     on;
    alphaK1         0.85;
    alphaK2         1;
    alphaOmega1     0.5;
    alphaOmega2     0.856;
    gamma1          0.555556;
    gamma2          0.44;
    beta1           0.075;
    beta2           0.0828;
    betaStar        0.09;
    a1              0.31;
    b1              1;
    c1              10;
    F3              false;
    decayControl    false;
    kInf            0;
    omegaInf        0;
}

No MRF models present

No finite volume options present

Starting time loop

Sampled surface:
    xNormal -> vtk
        sampledCuttingPlane: xNormal : plane:(1 0 0) (0.09 0 0) offsets:(0)
    yNormal_0 -> vtk
        sampledCuttingPlane: yNormal_0 : plane:(0 1 0) (0 0 0) offsets:(0)
    zNormal_0 -> vtk
        sampledCuttingPlane: zNormal_0 : plane:(0 0 1) (0 0 0) offsets:(0)
    zNormal_0_1 -> vtk
        sampledCuttingPlane: zNormal_0_1 : plane:(0 0 1) (0 0 0.1) offsets:(0)
    zNormal_0_05 -> vtk
        sampledCuttingPlane: zNormal_0_05 : plane:(0 0 1) (0 0 0.05) offsets:(0)

forces forces:
    rho: rhoInf
    Freestream density (rhoInf) set to 1
    Not including porosity effects

fieldAverage fieldAverage:
    Restarting averaging for fields:
        U: starting averaging at time 0
        p: starting averaging at time 0

Time = 1

smoothSolver:  Solving for Ux, Initial residual = 1, Final residual = 0.0959664, No Iterations 12
smoothSolver:  Solving for Uy, Initial residual = 1, Final residual = 0.0971577, No Iterations 12
smoothSolver:  Solving for Uz, Initial residual = 1, Final residual = 0.0841762, No Iterations 13
GAMG:  Solving for p, Initial residual = 1, Final residual = 0.0064172, No Iterations 10
GAMG:  Solving for p, Initial residual = 0.0539288, Final residual = 0.000493561, No Iterations 4
GAMG:  Solving for p, Initial residual = 0.00414643, Final residual = 2.63811e-05, No Iterations 6
time step continuity errors : sum local = 0.000347141, global = -5.66476e-06, cumulative = -5.66476e-06
smoothSolver:  Solving for omega, Initial residual = 0.143889, Final residual = 0.00961702, No Iterations 3
bounding omega, min: -17.3364 max: 484312 average: 5271.8
smoothSolver:  Solving for k, Initial residual = 1, Final residual = 0.0603917, No Iterations 4
ExecutionTime = 2.06 s  ClockTime = 3 s

forces forces write:
    Sum of forces
        Total    : (123.442 0.00417723 16.5659)
        Pressure : (123.261 0.00417553 16.567)
        Viscous  : (0.181872 1.69156e-06 -0.00115331)
    Sum of moments
        Total    : (-5.38193e-05 -165.829 0.0427183)
        Pressure : (-5.37384e-05 -165.849 0.0427016)
        Viscous  : (-8.09107e-08 0.0198841 1.66703e-05)
    writing force and moment files.

Time = 2

smoothSolver:  Solving for Ux, Initial residual = 0.365743, Final residual = 0.0296757, No Iterations 11
smoothSolver:  Solving for Uy, Initial residual = 0.787409, Final residual = 0.0681111, No Iterations 11
smoothSolver:  Solving for Uz, Initial residual = 0.628186, Final residual = 0.0583646, No Iterations 11
GAMG:  Solving for p, Initial residual = 0.254347, Final residual = 0.00188986, No Iterations 6
GAMG:  Solving for p, Initial residual = 0.0152963, Final residual = 0.00010541, No Iterations 9
GAMG:  Solving for p, Initial residual = 0.00216422, Final residual = 2.00978e-05, No Iterations 9
time step continuity errors : sum local = 0.0111388, global = -0.000156936, cumulative = -0.000162601
smoothSolver:  Solving for omega, Initial residual = 0.09414, Final residual = 0.00666131, No Iterations 5
smoothSolver:  Solving for k, Initial residual = 0.783173, Final residual = 0.0587523, No Iterations 3
ExecutionTime = 4.08 s  ClockTime = 5 s

forces forces write:
    Sum of forces
        Total    : (28.8872 0.045544 5.243)
        Pressure : (34.2187 0.0452323 5.27114)
        Viscous  : (-5.33144 0.000311772 -0.0281407)
    Sum of moments
        Total    : (-0.00157703 -52.9018 0.457866)
        Pressure : (-0.00155742 -53.0221 0.454619)
        Viscous  : (-1.96129e-05 0.120332 0.00324745)
    writing force and moment files.

Time = 3

smoothSolver:  Solving for Ux, Initial residual = 0.362499, Final residual = 0.0307786, No Iterations 7
smoothSolver:  Solving for Uy, Initial residual = 0.595302, Final residual = 0.0545131, No Iterations 8
smoothSolver:  Solving for Uz, Initial residual = 0.53566, Final residual = 0.0457641, No Iterations 8
GAMG:  Solving for p, Initial residual = 0.524102, Final residual = 0.00374102, No Iterations 9
GAMG:  Solving for p, Initial residual = 0.0211545, Final residual = 0.000187312, No Iterations 8
GAMG:  Solving for p, Initial residual = 0.00218079, Final residual = 2.03292e-05, No Iterations 11
time step continuity errors : sum local = 0.0042747, global = -0.000231551, cumulative = -0.000394152
smoothSolver:  Solving for omega, Initial residual = 0.0396368, Final residual = 0.00232265, No Iterations 4
smoothSolver:  Solving for k, Initial residual = 0.0994362, Final residual = 0.00791098, No Iterations 3
ExecutionTime = 5.98 s  ClockTime = 7 s

forces forces write:
    Sum of forces
        Total    : (135.432 0.284832 1.96385)
        Pressure : (136.605 0.28388 2.03575)
        Viscous  : (-1.17276 0.000952438 -0.071895)
    Sum of moments
        Total    : (-0.00908647 -18.6007 2.89009)
        Pressure : (-0.00908183 -19.2897 2.88042)
        Viscous  : (-4.63593e-06 0.688997 0.00966543)
    writing force and moment files.

Time = 4

smoothSolver:  Solving for Ux, Initial residual = 0.39711, Final residual = 0.0391427, No Iterations 6
smoothSolver:  Solving for Uy, Initial residual = 0.558852, Final residual = 0.0476635, No Iterations 7
smoothSolver:  Solving for Uz, Initial residual = 0.471477, Final residual = 0.0358888, No Iterations 7
GAMG:  Solving for p, Initial residual = 0.0947553, Final residual = 0.000835988, No Iterations 9
GAMG:  Solving for p, Initial residual = 0.0175062, Final residual = 0.000169487, No Iterations 8
GAMG:  Solving for p, Initial residual = 0.00154355, Final residual = 1.26474e-05, No Iterations 13
time step continuity errors : sum local = 0.0031413, global = 4.83187e-05, cumulative = -0.000345833
smoothSolver:  Solving for omega, Initial residual = 0.0295226, Final residual = 0.00196595, No Iterations 3
smoothSolver:  Solving for k, Initial residual = 0.0629809, Final residual = 0.00479458, No Iterations 3
ExecutionTime = 7.57 s  ClockTime = 9 s

forces forces write:
    Sum of forces
        Total    : (8.97798 0.446171 -13.7947)
        Pressure : (9.32223 0.447048 -13.7852)
        Viscous  : (-0.34425 -0.000876401 -0.00944237)
    Sum of moments
        Total    : (-0.0143865 140.771 4.5282)
        Pressure : (-0.0144609 140.694 4.53695)
        Viscous  : (7.44082e-05 0.0771257 -0.00875164)
    writing force and moment files.

Time = 5

smoothSolver:  Solving for Ux, Initial residual = 0.295965, Final residual = 0.0288268, No Iterations 7
smoothSolver:  Solving for Uy, Initial residual = 0.465774, Final residual = 0.0422674, No Iterations 7
smoothSolver:  Solving for Uz, Initial residual = 0.337744, Final residual = 0.0267962, No Iterations 7
GAMG:  Solving for p, Initial residual = 0.0997387, Final residual = 0.000825729, No Iterations 9
GAMG:  Solving for p, Initial residual = 0.0192906, Final residual = 0.000157482, No Iterations 9
GAMG:  Solving for p, Initial residual = 0.00174783, Final residual = 1.49345e-05, No Iterations 12
time step continuity errors : sum local = 0.00420898, global = 4.69602e-05, cumulative = -0.000298873
smoothSolver:  Solving for omega, Initial residual = 0.0218591, Final residual = 0.00146946, No Iterations 3
smoothSolver:  Solving for k, Initial residual = 0.0573948, Final residual = 0.00474746, No Iterations 3
ExecutionTime = 9.09 s  ClockTime = 11 s

forces forces write:
    Sum of forces
        Total    : (-5.74595 0.270156 -2.33517)
        Pressure : (-5.63404 0.270502 -2.36431)
        Viscous  : (-0.111908 -0.000345744 0.0291374)
    Sum of moments
        Total    : (-0.00528007 23.9778 2.71591)
        Pressure : (-0.0053108 24.2881 2.71919)
        Viscous  : (3.07383e-05 -0.310281 -0.00327955)
    writing force and moment files.

Time = 6

smoothSolver:  Solving for Ux, Initial residual = 0.252738, Final residual = 0.0237595, No Iterations 7
smoothSolver:  Solving for Uy, Initial residual = 0.417125, Final residual = 0.0327417, No Iterations 7
smoothSolver:  Solving for Uz, Initial residual = 0.298266, Final residual = 0.0241447, No Iterations 7
GAMG:  Solving for p, Initial residual = 0.121044, Final residual = 0.000916893, No Iterations 9
GAMG:  Solving for p, Initial residual = 0.0194486, Final residual = 0.000169029, No Iterations 9
GAMG:  Solving for p, Initial residual = 0.00189781, Final residual = 1.55987e-05, No Iterations 13
time step continuity errors : sum local = 0.00460032, global = 6.46172e-05, cumulative = -0.000234256
smoothSolver:  Solving for omega, Initial residual = 0.0187901, Final residual = 0.00124554, No Iterations 3
smoothSolver:  Solving for k, Initial residual = 0.0622815, Final residual = 0.00480425, No Iterations 3
ExecutionTime = 10.63 s  ClockTime = 12 s

forces forces write:
    Sum of forces
        Total    : (1.12745 0.241342 8.65682)
        Pressure : (1.11966 0.23938 8.61339)
        Viscous  : (0.00778227 0.00196168 0.0434281)
    Sum of moments
        Total    : (-0.00474633 -88.1195 2.41442)
        Pressure : (-0.00467251 -87.6668 2.39454)
        Viscous  : (-7.38288e-05 -0.452657 0.01988)
    writing force and moment files.

Time = 7

smoothSolver:  Solving for Ux, Initial residual = 0.244574, Final residual = 0.0231051, No Iterations 7
smoothSolver:  Solving for Uy, Initial residual = 0.38596, Final residual = 0.0325218, No Iterations 7
smoothSolver:  Solving for Uz, Initial residual = 0.272546, Final residual = 0.0244831, No Iterations 7
GAMG:  Solving for p, Initial residual = 0.126569, Final residual = 0.00115723, No Iterations 8
GAMG:  Solving for p, Initial residual = 0.0172328, Final residual = 0.000169594, No Iterations 9
GAMG:  Solving for p, Initial residual = 0.00166723, Final residual = 1.57649e-05, No Iterations 13
time step continuity errors : sum local = 0.00463042, global = 0.00010828, cumulative = -0.000125976
smoothSolver:  Solving for omega, Initial residual = 0.017954, Final residual = 0.00111862, No Iterations 3
smoothSolver:  Solving for k, Initial residual = 0.0673228, Final residual = 0.00482547, No Iterations 3
ExecutionTime = 12.29 s  ClockTime = 14 s

forces forces write:
    Sum of forces
        Total    : (5.23656 0.218693 12.5596)
        Pressure : (5.10789 0.216616 12.4873)
        Viscous  : (0.128671 0.00207767 0.0723463)
    Sum of moments
        Total    : (-0.00697287 -128.01 2.18521)
        Pressure : (-0.00693892 -127.266 2.16406)
        Viscous  : (-3.39508e-05 -0.743366 0.0211417)
    writing force and moment files.

Time = 8

smoothSolver:  Solving for Ux, Initial residual = 0.243348, Final residual = 0.0240612, No Iterations 7
smoothSolver:  Solving for Uy, Initial residual = 0.37664, Final residual = 0.0327261, No Iterations 7
smoothSolver:  Solving for Uz, Initial residual = 0.258643, Final residual = 0.0225994, No Iterations 7
GAMG:  Solving for p, Initial residual = 0.120548, Final residual = 0.000982576, No Iterations 9
GAMG:  Solving for p, Initial residual = 0.0163472, Final residual = 0.00015676, No Iterations 9
GAMG:  Solving for p, Initial residual = 0.00144601, Final residual = 1.40484e-05, No Iterations 14
time step continuity errors : sum local = 0.00404429, global = 3.89346e-05, cumulative = -8.70417e-05
smoothSolver:  Solving for omega, Initial residual = 0.0170733, Final residual = 0.00100042, No Iterations 3
smoothSolver:  Solving for k, Initial residual = 0.0707311, Final residual = 0.00478529, No Iterations 3
ExecutionTime = 13.94 s  ClockTime = 15 s

forces forces write:
    Sum of forces
        Total    : (5.45693 0.21541 9.68674)
        Pressure : (5.268 0.212293 9.58752)
        Viscous  : (0.188928 0.00311684 0.0992241)
    Sum of moments
        Total    : (-0.0087932 -98.5422 2.16006)
        Pressure : (-0.00872513 -97.5293 2.12825)
        Viscous  : (-6.80758e-05 -1.01294 0.0318101)
    writing force and moment files.

Time = 9

smoothSolver:  Solving for Ux, Initial residual = 0.241919, Final residual = 0.0230912, No Iterations 7
smoothSolver:  Solving for Uy, Initial residual = 0.373562, Final residual = 0.0298279, No Iterations 7
smoothSolver:  Solving for Uz, Initial residual = 0.249806, Final residual = 0.0208199, No Iterations 7
GAMG:  Solving for p, Initial residual = 0.126041, Final residual = 0.00104769, No Iterations 9
GAMG:  Solving for p, Initial residual = 0.0155764, Final residual = 0.000147211, No Iterations 10
GAMG:  Solving for p, Initial residual = 0.00143481, Final residual = 1.40945e-05, No Iterations 15
time step continuity errors : sum local = 0.00397306, global = 8.96445e-06, cumulative = -7.80772e-05
smoothSolver:  Solving for omega, Initial residual = 0.0156785, Final residual = 0.000884768, No Iterations 3
smoothSolver:  Solving for k, Initial residual = 0.0692636, Final residual = 0.00438983, No Iterations 3
ExecutionTime = 15.55 s  ClockTime = 17 s

forces forces write:
    Sum of forces
        Total    : (3.2773 0.194607 5.37823)
        Pressure : (3.05541 0.189927 5.27712)
        Viscous  : (0.221889 0.00468019 0.101111)
    Sum of moments
        Total    : (-0.008285 -54.4499 1.96252)
        Pressure : (-0.00818449 -53.4208 1.91493)
        Viscous  : (-0.000100512 -1.02913 0.0475891)
    writing force and moment files.

Time = 10

smoothSolver:  Solving for Ux, Initial residual = 0.231801, Final residual = 0.0220028, No Iterations 7
smoothSolver:  Solving for Uy, Initial residual = 0.362042, Final residual = 0.0277817, No Iterations 7
smoothSolver:  Solving for Uz, Initial residual = 0.245551, Final residual = 0.0207134, No Iterations 7
GAMG:  Solving for p, Initial residual = 0.126719, Final residual = 0.00101371, No Iterations 9
GAMG:  Solving for p, Initial residual = 0.0152773, Final residual = 0.000146704, No Iterations 11
GAMG:  Solving for p, Initial residual = 0.00152401, Final residual = 1.47214e-05, No Iterations 16
time step continuity errors : sum local = 0.00419661, global = -2.75253e-05, cumulative = -0.000105603
smoothSolver:  Solving for omega, Initial residual = 0.0147361, Final residual = 0.000860384, No Iterations 3
smoothSolver:  Solving for k, Initial residual = 0.0663979, Final residual = 0.00418951, No Iterations 3
ExecutionTime = 17.41 s  ClockTime = 19 s

forces forces write:
    Sum of forces
        Total    : (0.722328 0.120425 0.299523)
        Pressure : (0.525606 0.11436 0.21509)
        Viscous  : (0.196721 0.00606524 0.0844324)
    Sum of moments
        Total    : (-0.00807671 -2.58538 1.21829)
        Pressure : (-0.00783227 -1.72513 1.15658)
        Viscous  : (-0.000244435 -0.860255 0.0617116)
    writing force and moment files.

Time = 11

smoothSolver:  Solving for Ux, Initial residual = 0.217671, Final residual = 0.0207136, No Iterations 7
smoothSolver:  Solving for Uy, Initial residual = 0.339012, Final residual = 0.0258301, No Iterations 7
smoothSolver:  Solving for Uz, Initial residual = 0.242502, Final residual = 0.0200147, No Iterations 7
GAMG:  Solving for p, Initial residual = 0.119292, Final residual = 0.00100223, No Iterations 9
GAMG:  Solving for p, Initial residual = 0.0136208, Final residual = 0.000128951, No Iterations 12
GAMG:  Solving for p, Initial residual = 0.0014439, Final residual = 1.31506e-05, No Iterations 17
time step continuity errors : sum local = 0.00387778, global = -3.75395e-05, cumulative = -0.000143142
smoothSolver:  Solving for omega, Initial residual = 0.0135207, Final residual = 0.000810734, No Iterations 3
smoothSolver:  Solving for k, Initial residual = 0.0632885, Final residual = 0.00394814, No Iterations 3
ExecutionTime = 19.19 s  ClockTime = 21 s

forces forces write:
    Sum of forces
        Total    : (-0.611399 0.00114793 -3.83582)
        Pressure : (-0.798054 -0.00450207 -3.89177)
        Viscous  : (0.186655 0.00565 0.0559509)
    Sum of moments
        Total    : (-0.00451845 39.5848 0.00915006)
        Pressure : (-0.00429606 40.1546 -0.0485896)
        Viscous  : (-0.000222395 -0.56981 0.0577396)
    writing force and moment files.

Time = 12

smoothSolver:  Solving for Ux, Initial residual = 0.199785, Final residual = 0.0187324, No Iterations 7
smoothSolver:  Solving for Uy, Initial residual = 0.324498, Final residual = 0.0251504, No Iterations 7
smoothSolver:  Solving for Uz, Initial residual = 0.231777, Final residual = 0.0186615, No Iterations 7
GAMG:  Solving for p, Initial residual = 0.112345, Final residual = 0.000895789, No Iterations 9
GAMG:  Solving for p, Initial residual = 0.0121338, Final residual = 0.000101767, No Iterations 13
GAMG:  Solving for p, Initial residual = 0.00131216, Final residual = 1.19172e-05, No Iterations 17
time step continuity errors : sum local = 0.00351954, global = -3.69594e-05, cumulative = -0.000180101
smoothSolver:  Solving for omega, Initial residual = 0.0125929, Final residual = 0.000744679, No Iterations 3
smoothSolver:  Solving for k, Initial residual = 0.061026, Final residual = 0.00370986, No Iterations 3
ExecutionTime = 21.12 s  ClockTime = 23 s

forces forces write:
    Sum of forces
        Total    : (-1.13717 -0.116239 -6.37084)
        Pressure : (-1.30089 -0.122191 -6.40165)
        Viscous  : (0.163721 0.00595159 0.0308101)
    Sum of moments
        Total    : (0.00104402 65.356 -1.18152)
        Pressure : (0.00129859 65.6707 -1.24237)
        Viscous  : (-0.000254573 -0.314682 0.0608527)
    writing force and moment files.

Time = 13

smoothSolver:  Solving for Ux, Initial residual = 0.183868, Final residual = 0.0172884, No Iterations 7
smoothSolver:  Solving for Uy, Initial residual = 0.309109, Final residual = 0.0246151, No Iterations 7
smoothSolver:  Solving for Uz, Initial residual = 0.216483, Final residual = 0.0169656, No Iterations 7
GAMG:  Solving for p, Initial residual = 0.104899, Final residual = 0.000814067, No Iterations 9
GAMG:  Solving for p, Initial residual = 0.0105904, Final residual = 8.88326e-05, No Iterations 13
GAMG:  Solving for p, Initial residual = 0.00112895, Final residual = 1.02126e-05, No Iterations 17
time step continuity errors : sum local = 0.00302038, global = -3.3924e-05, cumulative = -0.000214025
smoothSolver:  Solving for omega, Initial residual = 0.0114124, Final residual = 0.000658082, No Iterations 3
smoothSolver:  Solving for k, Initial residual = 0.0581495, Final residual = 0.00338868, No Iterations 3
ExecutionTime = 22.96 s  ClockTime = 25 s

forces forces write:
    Sum of forces
        Total    : (-0.978152 -0.237942 -7.39697)
        Pressure : (-1.12894 -0.242713 -7.40933)
        Viscous  : (0.150784 0.00477058 0.012367)
    Sum of moments
        Total    : (0.00969963 75.7089 -2.41491)
        Pressure : (0.00988553 75.8354 -2.46412)
        Viscous  : (-0.000185901 -0.126488 0.0492059)
    writing force and moment files.

Time = 14

smoothSolver:  Solving for Ux, Initial residual = 0.168481, Final residual = 0.0161814, No Iterations 7
smoothSolver:  Solving for Uy, Initial residual = 0.292288, Final residual = 0.0239108, No Iterations 7
smoothSolver:  Solving for Uz, Initial residual = 0.197965, Final residual = 0.0158766, No Iterations 7
GAMG:  Solving for p, Initial residual = 0.0974318, Final residual = 0.000762725, No Iterations 9
GAMG:  Solving for p, Initial residual = 0.00950906, Final residual = 9.44885e-05, No Iterations 12
GAMG:  Solving for p, Initial residual = 0.000983437, Final residual = 9.04917e-06, No Iterations 17
time step continuity errors : sum local = 0.00262273, global = -3.40426e-05, cumulative = -0.000248068
smoothSolver:  Solving for omega, Initial residual = 0.0102443, Final residual = 0.000583733, No Iterations 3
smoothSolver:  Solving for k, Initial residual = 0.0537923, Final residual = 0.00299667, No Iterations 3
ExecutionTime = 24.74 s  ClockTime = 27 s

forces forces write:
    Sum of forces
        Total    : (-0.870793 -0.320701 -7.38787)
        Pressure : (-0.994975 -0.325538 -7.39141)
        Viscous  : (0.124182 0.004837 0.00353836)
    Sum of moments
        Total    : (0.0151045 75.5156 -3.24933)
        Pressure : (0.0153097 75.5516 -3.29947)
        Viscous  : (-0.000205192 -0.0359592 0.0501446)
    writing force and moment files.

Time = 15

smoothSolver:  Solving for Ux, Initial residual = 0.155644, Final residual = 0.0150143, No Iterations 7
smoothSolver:  Solving for Uy, Initial residual = 0.279133, Final residual = 0.0242163, No Iterations 7
smoothSolver:  Solving for Uz, Initial residual = 0.178579, Final residual = 0.014961, No Iterations 7
GAMG:  Solving for p, Initial residual = 0.0931385, Final residual = 0.000852991, No Iterations 8
GAMG:  Solving for p, Initial residual = 0.00878049, Final residual = 8.33737e-05, No Iterations 12
GAMG:  Solving for p, Initial residual = 0.0008805, Final residual = 8.28466e-06, No Iterations 16
time step continuity errors : sum local = 0.00240073, global = -3.27234e-05, cumulative = -0.000280791
smoothSolver:  Solving for omega, Initial residual = 0.00955192, Final residual = 0.000533497, No Iterations 3
smoothSolver:  Solving for k, Initial residual = 0.0504913, Final residual = 0.0026558, No Iterations 3
ExecutionTime = 26.66 s  ClockTime = 29 s

forces forces write:
    Sum of forces
        Total    : (-0.478377 -0.296565 -6.72965)
        Pressure : (-0.59393 -0.302156 -6.72548)
        Viscous  : (0.115553 0.0055906 -0.00417726)
    Sum of moments
        Total    : (0.0165487 68.7093 -3.0019)
        Pressure : (0.0167972 68.6652 -3.06)
        Viscous  : (-0.000248538 0.0440713 0.0581025)
    writing force and moment files.

Time = 16

smoothSolver:  Solving for Ux, Initial residual = 0.142819, Final residual = 0.0138145, No Iterations 7
smoothSolver:  Solving for Uy, Initial residual = 0.267777, Final residual = 0.0241924, No Iterations 7
smoothSolver:  Solving for Uz, Initial residual = 0.162696, Final residual = 0.0139777, No Iterations 7
GAMG:  Solving for p, Initial residual = 0.0896338, Final residual = 0.000761185, No Iterations 8
GAMG:  Solving for p, Initial residual = 0.00838754, Final residual = 7.84687e-05, No Iterations 12
GAMG:  Solving for p, Initial residual = 0.000835962, Final residual = 8.28783e-06, No Iterations 16
time step continuity errors : sum local = 0.00237578, global = -4.36554e-05, cumulative = -0.000324447
smoothSolver:  Solving for omega, Initial residual = 0.00880768, Final residual = 0.000502242, No Iterations 3
smoothSolver:  Solving for k, Initial residual = 0.047477, Final residual = 0.002342, No Iterations 3
ExecutionTime = 28.57 s  ClockTime = 31 s

forces forces write:
    Sum of forces
        Total    : (-0.113875 -0.30192 -5.76911)
        Pressure : (-0.21428 -0.307544 -5.75984)
        Viscous  : (0.100406 0.00562393 -0.00927724)
    Sum of moments
        Total    : (0.0199748 58.8023 -3.06008)
        Pressure : (0.0202527 58.7055 -3.11853)
        Viscous  : (-0.000277867 0.0968173 0.0584545)
    writing force and moment files.

Time = 17

smoothSolver:  Solving for Ux, Initial residual = 0.131798, Final residual = 0.0128253, No Iterations 7
smoothSolver:  Solving for Uy, Initial residual = 0.258189, Final residual = 0.0238753, No Iterations 7
smoothSolver:  Solving for Uz, Initial residual = 0.151255, Final residual = 0.0128777, No Iterations 7
GAMG:  Solving for p, Initial residual = 0.087547, Final residual = 0.000822959, No Iterations 8
GAMG:  Solving for p, Initial residual = 0.00810195, Final residual = 8.06378e-05, No Iterations 13
GAMG:  Solving for p, Initial residual = 0.000845846, Final residual = 7.43679e-06, No Iterations 18
time step continuity errors : sum local = 0.00209144, global = 2.83903e-05, cumulative = -0.000296056
smoothSolver:  Solving for omega, Initial residual = 0.00812789, Final residual = 0.000465463, No Iterations 3
smoothSolver:  Solving for k, Initial residual = 0.0445538, Final residual = 0.00211808, No Iterations 3
ExecutionTime = 30.66 s  ClockTime = 33 s

forces forces write:
    Sum of forces
        Total    : (0.295784 -0.294677 -5.06034)
        Pressure : (0.211086 -0.301055 -5.04552)
        Viscous  : (0.0846978 0.006378 -0.0148185)
    Sum of moments
        Total    : (0.0220234 51.4568 -2.99172)
        Pressure : (0.0223068 51.303 -3.05783)
        Viscous  : (-0.000283388 0.153833 0.0661051)
    writing force and moment files.

Time = 18

smoothSolver:  Solving for Ux, Initial residual = 0.122847, Final residual = 0.0120669, No Iterations 7
smoothSolver:  Solving for Uy, Initial residual = 0.253755, Final residual = 0.0230756, No Iterations 7
smoothSolver:  Solving for Uz, Initial residual = 0.143745, Final residual = 0.0122228, No Iterations 7
GAMG:  Solving for p, Initial residual = 0.0848754, Final residual = 0.000724672, No Iterations 9
GAMG:  Solving for p, Initial residual = 0.00774516, Final residual = 7.24759e-05, No Iterations 14
GAMG:  Solving for p, Initial residual = 0.000842267, Final residual = 7.25244e-06, No Iterations 18
time step continuity errors : sum local = 0.00199566, global = 2.27796e-05, cumulative = -0.000273277
smoothSolver:  Solving for omega, Initial residual = 0.00747386, Final residual = 0.000435403, No Iterations 3
smoothSolver:  Solving for k, Initial residual = 0.0415582, Final residual = 0.00194667, No Iterations 3
ExecutionTime = 32.65 s  ClockTime = 35 s

forces forces write:
    Sum of forces
        Total    : (0.557654 -0.267485 -4.45158)
        Pressure : (0.484814 -0.274547 -4.43255)
        Viscous  : (0.0728406 0.00706213 -0.019034)
    Sum of moments
        Total    : (0.0212505 45.126 -2.71918)
        Pressure : (0.0215522 44.9293 -2.79222)
        Viscous  : (-0.000301639 0.196778 0.0730393)
    writing force and moment files.

Time = 19

smoothSolver:  Solving for Ux, Initial residual = 0.11617, Final residual = 0.0114505, No Iterations 7
smoothSolver:  Solving for Uy, Initial residual = 0.246899, Final residual = 0.0217646, No Iterations 7
smoothSolver:  Solving for Uz, Initial residual = 0.139071, Final residual = 0.0120705, No Iterations 7
GAMG:  Solving for p, Initial residual = 0.0808171, Final residual = 0.000761174, No Iterations 9
GAMG:  Solving for p, Initial residual = 0.00749424, Final residual = 6.49381e-05, No Iterations 15
GAMG:  Solving for p, Initial residual = 0.000850505, Final residual = 7.2776e-06, No Iterations 18
time step continuity errors : sum local = 0.00194799, global = 2.24877e-05, cumulative = -0.000250789
smoothSolver:  Solving for omega, Initial residual = 0.00683608, Final residual = 0.000396944, No Iterations 3
smoothSolver:  Solving for k, Initial residual = 0.0394127, Final residual = 0.0018552, No Iterations 3
ExecutionTime = 34.67 s  ClockTime = 37 s

forces forces write:
    Sum of forces
        Total    : (0.62134 -0.221688 -3.91547)
        Pressure : (0.559634 -0.227978 -3.89503)
        Viscous  : (0.0617056 0.0062905 -0.0204469)
    Sum of moments
        Total    : (0.0178521 39.5681 -2.25449)
        Pressure : (0.0181256 39.3572 -2.3197)
        Viscous  : (-0.000273556 0.2109 0.0652092)
    writing force and moment files.

Time = 20

smoothSolver:  Solving for Ux, Initial residual = 0.110521, Final residual = 0.0108266, No Iterations 7
smoothSolver:  Solving for Uy, Initial residual = 0.237049, Final residual = 0.0206348, No Iterations 7
smoothSolver:  Solving for Uz, Initial residual = 0.135222, Final residual = 0.012049, No Iterations 7
GAMG:  Solving for p, Initial residual = 0.0769108, Final residual = 0.000717682, No Iterations 9
GAMG:  Solving for p, Initial residual = 0.00712826, Final residual = 7.10238e-05, No Iterations 14
GAMG:  Solving for p, Initial residual = 0.000821179, Final residual = 6.92861e-06, No Iterations 18
time step continuity errors : sum local = 0.00179848, global = 1.91594e-05, cumulative = -0.00023163
smoothSolver:  Solving for omega, Initial residual = 0.00641417, Final residual = 0.000369297, No Iterations 3
smoothSolver:  Solving for k, Initial residual = 0.0379831, Final residual = 0.00183155, No Iterations 3
ExecutionTime = 36.85 s  ClockTime = 39 s

forces forces write:
    Sum of forces
        Total    : (0.468451 -0.146947 -3.23961)
        Pressure : (0.42034 -0.152733 -3.22148)
        Viscous  : (0.0481107 0.00578581 -0.0181271)
    Sum of moments
        Total    : (0.0122081 32.6457 -1.49576)
        Pressure : (0.0124528 32.4588 -1.55562)
        Viscous  : (-0.000244618 0.186926 0.0598582)
    writing force and moment files.

Time = 21

smoothSolver:  Solving for Ux, Initial residual = 0.106333, Final residual = 0.0102096, No Iterations 7
smoothSolver:  Solving for Uy, Initial residual = 0.23006, Final residual = 0.0197608, No Iterations 7
smoothSolver:  Solving for Uz, Initial residual = 0.131653, Final residual = 0.011873, No Iterations 7
GAMG:  Solving for p, Initial residual = 0.0743999, Final residual = 0.000662023, No Iterations 9
GAMG:  Solving for p, Initial residual = 0.00689112, Final residual = 6.887e-05, No Iterations 13
GAMG:  Solving for p, Initial residual = 0.000759658, Final residual = 6.85691e-06, No Iterations 17
time step continuity errors : sum local = 0.00173155, global = 1.70944e-05, cumulative = -0.000214535
smoothSolver:  Solving for omega, Initial residual = 0.00601094, Final residual = 0.000341742, No Iterations 3
smoothSolver:  Solving for k, Initial residual = 0.0370863, Final residual = 0.00181967, No Iterations 3
ExecutionTime = 39.07 s  ClockTime = 42 s

forces forces write:
    Sum of forces
        Total    : (0.286904 -0.0631988 -2.39166)
        Pressure : (0.244525 -0.0695329 -2.37562)
        Viscous  : (0.0423787 0.00633419 -0.0160437)
    Sum of moments
        Total    : (0.00685426 24.0438 -0.647161)
        Pressure : (0.00714277 23.8782 -0.712322)
        Viscous  : (-0.000288504 0.165608 0.0651615)
    writing force and moment files.

Time = 22

smoothSolver:  Solving for Ux, Initial residual = 0.104452, Final residual = 0.00964099, No Iterations 7
smoothSolver:  Solving for Uy, Initial residual = 0.228238, Final residual = 0.019129, No Iterations 7
smoothSolver:  Solving for Uz, Initial residual = 0.129448, Final residual = 0.011559, No Iterations 7
GAMG:  Solving for p, Initial residual = 0.0726129, Final residual = 0.00058992, No Iterations 9
GAMG:  Solving for p, Initial residual = 0.00675094, Final residual = 6.37641e-05, No Iterations 12
GAMG:  Solving for p, Initial residual = 0.000701804, Final residual = 6.57658e-06, No Iterations 16
time step continuity errors : sum local = 0.00159, global = 1.51587e-05, cumulative = -0.000199377
smoothSolver:  Solving for omega, Initial residual = 0.00563009, Final residual = 0.000317965, No Iterations 3
smoothSolver:  Solving for k, Initial residual = 0.0373683, Final residual = 0.00182383, No Iterations 3
ExecutionTime = 41.43 s  ClockTime = 44 s

forces forces write:
    Sum of forces
        Total    : (0.191263 0.0186865 -1.47019)
        Pressure : (0.154946 0.0130639 -1.46029)
        Viscous  : (0.0363169 0.00562261 -0.00990108)
    Sum of moments
        Total    : (0.00302486 14.7464 0.181003)
        Pressure : (0.0032801 14.6433 0.123273)
        Viscous  : (-0.000255241 0.103107 0.0577297)
    writing force and moment files.

Time = 23

smoothSolver:  Solving for Ux, Initial residual = 0.104038, Final residual = 0.00907454, No Iterations 7
smoothSolver:  Solving for Uy, Initial residual = 0.228915, Final residual = 0.0187149, No Iterations 7
smoothSolver:  Solving for Uz, Initial residual = 0.129924, Final residual = 0.0110443, No Iterations 7
GAMG:  Solving for p, Initial residual = 0.0704501, Final residual = 0.000529072, No Iterations 9
GAMG:  Solving for p, Initial residual = 0.00648659, Final residual = 5.52049e-05, No Iterations 12
GAMG:  Solving for p, Initial residual = 0.000647385, Final residual = 5.54792e-06, No Iterations 16
time step continuity errors : sum local = 0.00127204, global = 1.17631e-05, cumulative = -0.000187614
smoothSolver:  Solving for omega, Initial residual = 0.00536196, Final residual = 0.000293877, No Iterations 3
smoothSolver:  Solving for k, Initial residual = 0.0383198, Final residual = 0.00182993, No Iterations 3
ExecutionTime = 44.28 s  ClockTime = 48 s

forces forces write:
    Sum of forces
        Total    : (0.29959 0.101249 -0.687883)
        Pressure : (0.266232 0.0955223 -0.682051)
        Viscous  : (0.0333584 0.00572665 -0.0058316)
    Sum of moments
        Total    : (-0.000280197 6.88218 1.01628)
        Pressure : (-4.36671e-05 6.82057 0.957752)
        Viscous  : (-0.00023653 0.0616135 0.0585259)
    writing force and moment files.

Time = 24

smoothSolver:  Solving for Ux, Initial residual = 0.104127, Final residual = 0.00845363, No Iterations 7
smoothSolver:  Solving for Uy, Initial residual = 0.227431, Final residual = 0.0183519, No Iterations 7
smoothSolver:  Solving for Uz, Initial residual = 0.131024, Final residual = 0.0104775, No Iterations 7
GAMG:  Solving for p, Initial residual = 0.0696483, Final residual = 0.000526042, No Iterations 9
GAMG:  Solving for p, Initial residual = 0.00642186, Final residual = 5.79698e-05, No Iterations 12
GAMG:  Solving for p, Initial residual = 0.000649311, Final residual = 5.63532e-06, No Iterations 16
time step continuity errors : sum local = 0.00119206, global = 1.27828e-05, cumulative = -0.000174831
smoothSolver:  Solving for omega, Initial residual = 0.00509553, Final residual = 0.000271282, No Iterations 3
smoothSolver:  Solving for k, Initial residual = 0.0393583, Final residual = 0.00181118, No Iterations 3
ExecutionTime = 46.19 s  ClockTime = 50 s

forces forces write:
    Sum of forces
        Total    : (0.524278 0.158749 -0.132087)
        Pressure : (0.492558 0.153298 -0.12832)
        Viscous  : (0.0317196 0.00545164 -0.00376723)
    Sum of moments
        Total    : (-0.00223323 1.30497 1.59933)
        Pressure : (-0.00201422 1.26434 1.54369)
        Viscous  : (-0.000219005 0.0406342 0.0556483)
    writing force and moment files.

Time = 25

smoothSolver:  Solving for Ux, Initial residual = 0.103891, Final residual = 0.00786769, No Iterations 7
smoothSolver:  Solving for Uy, Initial residual = 0.222627, Final residual = 0.0180455, No Iterations 7
smoothSolver:  Solving for Uz, Initial residual = 0.131004, Final residual = 0.0101757, No Iterations 7
GAMG:  Solving for p, Initial residual = 0.0698181, Final residual = 0.000546753, No Iterations 9
GAMG:  Solving for p, Initial residual = 0.00645098, Final residual = 5.84184e-05, No Iterations 12
GAMG:  Solving for p, Initial residual = 0.000669971, Final residual = 6.66545e-06, No Iterations 15
time step continuity errors : sum local = 0.00129398, global = -1.17992e-05, cumulative = -0.00018663
smoothSolver:  Solving for omega, Initial residual = 0.00484692, Final residual = 0.000250444, No Iterations 3
smoothSolver:  Solving for k, Initial residual = 0.0401752, Final residual = 0.00178511, No Iterations 3
ExecutionTime = 48.09 s  ClockTime = 52 s

forces forces write:
    Sum of forces
        Total    : (0.767261 0.18832 0.215279)
        Pressure : (0.736367 0.182175 0.217377)
        Viscous  : (0.030894 0.00614553 -0.00209817)
    Sum of moments
        Total    : (-0.00341116 -2.17995 1.89983)
        Pressure : (-0.00314838 -2.20378 1.83732)
        Viscous  : (-0.000262773 0.0238262 0.0625079)
    writing force and moment files.

Time = 26

smoothSolver:  Solving for Ux, Initial residual = 0.102713, Final residual = 0.0100362, No Iterations 6
smoothSolver:  Solving for Uy, Initial residual = 0.217225, Final residual = 0.0176725, No Iterations 7
smoothSolver:  Solving for Uz, Initial residual = 0.129893, Final residual = 0.00989716, No Iterations 7
GAMG:  Solving for p, Initial residual = 0.0703304, Final residual = 0.000535343, No Iterations 9
GAMG:  Solving for p, Initial residual = 0.0063177, Final residual = 5.6619e-05, No Iterations 12
GAMG:  Solving for p, Initial residual = 0.000653258, Final residual = 6.18316e-06, No Iterations 15
time step continuity errors : sum local = 0.00109495, global = -1.1912e-05, cumulative = -0.000198542
smoothSolver:  Solving for omega, Initial residual = 0.00459992, Final residual = 0.000231778, No Iterations 3
smoothSolver:  Solving for k, Initial residual = 0.0405768, Final residual = 0.00174871, No Iterations 3
ExecutionTime = 49.96 s  ClockTime = 54 s

forces forces write:
    Sum of forces
        Total    : (0.91576 0.191891 0.375389)
        Pressure : (0.886279 0.185952 0.376779)
        Viscous  : (0.0294812 0.0059387 -0.00139035)
    Sum of moments
        Total    : (-0.00374006 -3.78682 1.93623)
        Pressure : (-0.00346789 -3.8035 1.87589)
        Viscous  : (-0.000272177 0.016679 0.0603438)
    writing force and moment files.

Time = 27

smoothSolver:  Solving for Ux, Initial residual = 0.100775, Final residual = 0.00953215, No Iterations 6
smoothSolver:  Solving for Uy, Initial residual = 0.210289, Final residual = 0.0170596, No Iterations 7
smoothSolver:  Solving for Uz, Initial residual = 0.128171, Final residual = 0.012657, No Iterations 6
GAMG:  Solving for p, Initial residual = 0.0702284, Final residual = 0.000544399, No Iterations 9
GAMG:  Solving for p, Initial residual = 0.0061861, Final residual = 6.14873e-05, No Iterations 11
GAMG:  Solving for p, Initial residual = 0.000629416, Final residual = 6.02794e-06, No Iterations 15
time step continuity errors : sum local = 0.000966213, global = -1.0907e-05, cumulative = -0.000209449
smoothSolver:  Solving for omega, Initial residual = 0.00437251, Final residual = 0.000214872, No Iterations 3
smoothSolver:  Solving for k, Initial residual = 0.0404101, Final residual = 0.00169407, No Iterations 3
ExecutionTime = 52.18 s  ClockTime = 57 s

forces forces write:
    Sum of forces
        Total    : (0.982432 0.176234 0.45999)
        Pressure : (0.954029 0.169878 0.460614)
        Viscous  : (0.028403 0.00635646 -0.000624311)
    Sum of moments
        Total    : (-0.00360983 -4.64041 1.77523)
        Pressure : (-0.00330072 -4.64946 1.71088)
        Viscous  : (-0.000309112 0.00904593 0.0643536)
    writing force and moment files.

Time = 28

smoothSolver:  Solving for Ux, Initial residual = 0.0976811, Final residual = 0.0089793, No Iterations 6
smoothSolver:  Solving for Uy, Initial residual = 0.202823, Final residual = 0.0165733, No Iterations 7
smoothSolver:  Solving for Uz, Initial residual = 0.126065, Final residual = 0.0123906, No Iterations 6
GAMG:  Solving for p, Initial residual = 0.0715171, Final residual = 0.000567853, No Iterations 9
GAMG:  Solving for p, Initial residual = 0.00627048, Final residual = 5.0937e-05, No Iterations 12
GAMG:  Solving for p, Initial residual = 0.000614175, Final residual = 5.47512e-06, No Iterations 15
time step continuity errors : sum local = 0.000780756, global = -9.45308e-06, cumulative = -0.000218902
smoothSolver:  Solving for omega, Initial residual = 0.00410256, Final residual = 0.000200521, No Iterations 3
smoothSolver:  Solving for k, Initial residual = 0.0397022, Final residual = 0.00164922, No Iterations 3
ExecutionTime = 54.26 s  ClockTime = 59 s

forces forces write:
    Sum of forces
        Total    : (0.976913 0.139103 0.515852)
        Pressure : (0.950826 0.133424 0.516487)
        Viscous  : (0.0260863 0.00567898 -0.000635516)
    Sum of moments
        Total    : (-0.00273274 -5.20858 1.3952)
        Pressure : (-0.0024316 -5.21773 1.33777)
        Viscous  : (-0.000301138 0.00914931 0.0574246)
    writing force and moment files.

Time = 29

smoothSolver:  Solving for Ux, Initial residual = 0.0943171, Final residual = 0.00839116, No Iterations 6
smoothSolver:  Solving for Uy, Initial residual = 0.195075, Final residual = 0.016497, No Iterations 7
smoothSolver:  Solving for Uz, Initial residual = 0.123856, Final residual = 0.0123696, No Iterations 6
GAMG:  Solving for p, Initial residual = 0.0733347, Final residual = 0.000465773, No Iterations 10
GAMG:  Solving for p, Initial residual = 0.00630873, Final residual = 6.17084e-05, No Iterations 11
GAMG:  Solving for p, Initial residual = 0.00059806, Final residual = 5.36669e-06, No Iterations 15
time step continuity errors : sum local = 0.000679422, global = -9.45039e-06, cumulative = -0.000228352
smoothSolver:  Solving for omega, Initial residual = 0.00379762, Final residual = 0.000186905, No Iterations 3
smoothSolver:  Solving for k, Initial residual = 0.0384665, Final residual = 0.0016304, No Iterations 3
ExecutionTime = 56.34 s  ClockTime = 62 s

forces forces write:
    Sum of forces
        Total    : (0.931448 0.109173 0.53552)
        Pressure : (0.907009 0.103056 0.536226)
        Viscous  : (0.0244392 0.00611653 -0.000706113)
    Sum of moments
        Total    : (-0.0022505 -5.41157 1.08847)
        Pressure : (-0.00193725 -5.42147 1.02679)
        Viscous  : (-0.000313252 0.00990145 0.0616831)
    writing force and moment files.

Time = 30

smoothSolver:  Solving for Ux, Initial residual = 0.0908932, Final residual = 0.0078595, No Iterations 6
smoothSolver:  Solving for Uy, Initial residual = 0.187052, Final residual = 0.0164206, No Iterations 7
smoothSolver:  Solving for Uz, Initial residual = 0.121092, Final residual = 0.00913432, No Iterations 7
GAMG:  Solving for p, Initial residual = 0.0754972, Final residual = 0.000747161, No Iterations 8
GAMG:  Solving for p, Initial residual = 0.00662539, Final residual = 6.08e-05, No Iterations 12
GAMG:  Solving for p, Initial residual = 0.00065122, Final residual = 5.45218e-06, No Iterations 15
time step continuity errors : sum local = 0.000613269, global = -9.87351e-06, cumulative = -0.000238226
smoothSolver:  Solving for omega, Initial residual = 0.00348026, Final residual = 0.000176364, No Iterations 3
smoothSolver:  Solving for k, Initial residual = 0.0367043, Final residual = 0.00164745, No Iterations 3
ExecutionTime = 58.26 s  ClockTime = 64 s

forces forces write:
    Sum of forces
        Total    : (0.870456 0.101589 0.50524)
        Pressure : (0.847758 0.0957206 0.506369)
        Viscous  : (0.0226989 0.00586822 -0.00112924)
    Sum of moments
        Total    : (-0.00244005 -5.11003 1.00951)
        Pressure : (-0.00214593 -5.12412 0.950342)
        Viscous  : (-0.000294118 0.0140964 0.059168)
    writing force and moment files.

Time = 31

smoothSolver:  Solving for Ux, Initial residual = 0.086884, Final residual = 0.00749127, No Iterations 6
smoothSolver:  Solving for Uy, Initial residual = 0.178191, Final residual = 0.0160889, No Iterations 7
smoothSolver:  Solving for Uz, Initial residual = 0.115711, Final residual = 0.00863065, No Iterations 7
GAMG:  Solving for p, Initial residual = 0.0778257, Final residual = 0.000721642, No Iterations 8
GAMG:  Solving for p, Initial residual = 0.00667581, Final residual = 6.00896e-05, No Iterations 12
GAMG:  Solving for p, Initial residual = 0.000650459, Final residual = 6.23818e-06, No Iterations 14
time step continuity errors : sum local = 0.00063661, global = -8.93515e-06, cumulative = -0.000247161
smoothSolver:  Solving for omega, Initial residual = 0.00319736, Final residual = 0.000166437, No Iterations 3
smoothSolver:  Solving for k, Initial residual = 0.0345558, Final residual = 0.00165291, No Iterations 3
ExecutionTime = 59.99 s  ClockTime = 65 s

forces forces write:
    Sum of forces
        Total    : (0.831033 0.116599 0.459576)
        Pressure : (0.80787 0.110341 0.460977)
        Viscous  : (0.0231639 0.00625872 -0.00140136)
    Sum of moments
        Total    : (-0.00318543 -4.65194 1.16078)
        Pressure : (-0.00291126 -4.66881 1.0977)
        Viscous  : (-0.000274173 0.0168656 0.0630801)
    writing force and moment files.

Time = 32

smoothSolver:  Solving for Ux, Initial residual = 0.0819897, Final residual = 0.00715426, No Iterations 6
smoothSolver:  Solving for Uy, Initial residual = 0.169809, Final residual = 0.01552, No Iterations 7
smoothSolver:  Solving for Uz, Initial residual = 0.109125, Final residual = 0.00824313, No Iterations 7
GAMG:  Solving for p, Initial residual = 0.0791938, Final residual = 0.000701878, No Iterations 8
GAMG:  Solving for p, Initial residual = 0.00662681, Final residual = 5.72714e-05, No Iterations 12
GAMG:  Solving for p, Initial residual = 0.000645351, Final residual = 6.14171e-06, No Iterations 14
time step continuity errors : sum local = 0.000579748, global = -6.00809e-06, cumulative = -0.000253169
smoothSolver:  Solving for omega, Initial residual = 0.00291571, Final residual = 0.000157224, No Iterations 3
smoothSolver:  Solving for k, Initial residual = 0.0324623, Final residual = 0.00164678, No Iterations 3
ExecutionTime = 61.71 s  ClockTime = 67 s

forces forces write:
    Sum of forces
        Total    : (0.80956 0.136911 0.402836)
        Pressure : (0.785878 0.130942 0.404718)
        Viscous  : (0.0236823 0.00596956 -0.00188213)
    Sum of moments
        Total    : (-0.00374353 -4.08032 1.36702)
        Pressure : (-0.00350888 -4.10199 1.30679)
        Viscous  : (-0.000234651 0.0216688 0.0602229)
    writing force and moment files.

Time = 33

smoothSolver:  Solving for Ux, Initial residual = 0.0760376, Final residual = 0.00673883, No Iterations 6
smoothSolver:  Solving for Uy, Initial residual = 0.16255, Final residual = 0.0149483, No Iterations 7
smoothSolver:  Solving for Uz, Initial residual = 0.102877, Final residual = 0.00798965, No Iterations 7
GAMG:  Solving for p, Initial residual = 0.0782923, Final residual = 0.000691069, No Iterations 8
GAMG:  Solving for p, Initial residual = 0.00641459, Final residual = 5.49431e-05, No Iterations 12
GAMG:  Solving for p, Initial residual = 0.000630697, Final residual = 5.7888e-06, No Iterations 14
time step continuity errors : sum local = 0.000516685, global = 6.02331e-06, cumulative = -0.000247146
smoothSolver:  Solving for omega, Initial residual = 0.00266112, Final residual = 0.000148327, No Iterations 3
smoothSolver:  Solving for k, Initial residual = 0.0305624, Final residual = 0.00163718, No Iterations 3
ExecutionTime = 63.53 s  ClockTime = 69 s

forces forces write:
    Sum of forces
        Total    : (0.807593 0.145353 0.359832)
        Pressure : (0.782174 0.139141 0.3617)
        Viscous  : (0.0254189 0.00621218 -0.0018685)
    Sum of moments
        Total    : (-0.00357718 -3.64631 1.45335)
        Pressure : (-0.00336791 -3.66787 1.39066)
        Viscous  : (-0.00020927 0.0215662 0.0626895)
    writing force and moment files.

Time = 34

smoothSolver:  Solving for Ux, Initial residual = 0.0696076, Final residual = 0.0062785, No Iterations 6
smoothSolver:  Solving for Uy, Initial residual = 0.155805, Final residual = 0.0143053, No Iterations 7
smoothSolver:  Solving for Uz, Initial residual = 0.0976506, Final residual = 0.00775074, No Iterations 7
GAMG:  Solving for p, Initial residual = 0.0764591, Final residual = 0.00064097, No Iterations 8
GAMG:  Solving for p, Initial residual = 0.00617109, Final residual = 6.0614e-05, No Iterations 11
GAMG:  Solving for p, Initial residual = 0.000621325, Final residual = 6.11341e-06, No Iterations 14
time step continuity errors : sum local = 0.000517757, global = 5.72525e-06, cumulative = -0.000241421
smoothSolver:  Solving for omega, Initial residual = 0.0024256, Final residual = 0.000138161, No Iterations 3
smoothSolver:  Solving for k, Initial residual = 0.028892, Final residual = 0.00162247, No Iterations 3
ExecutionTime = 65.27 s  ClockTime = 71 s

forces forces write:
    Sum of forces
        Total    : (0.8052 0.134896 0.341619)
        Pressure : (0.778033 0.12908 0.343514)
        Viscous  : (0.0271666 0.00581536 -0.00189499)
    Sum of moments
        Total    : (-0.00290506 -3.46442 1.34827)
        Pressure : (-0.00272223 -3.48625 1.28954)
        Viscous  : (-0.000182832 0.0218263 0.0587292)
    writing force and moment files.

Time = 35

smoothSolver:  Solving for Ux, Initial residual = 0.0635984, Final residual = 0.0058358, No Iterations 6
smoothSolver:  Solving for Uy, Initial residual = 0.147819, Final residual = 0.0135837, No Iterations 7
smoothSolver:  Solving for Uz, Initial residual = 0.0933744, Final residual = 0.00751398, No Iterations 7
GAMG:  Solving for p, Initial residual = 0.0745005, Final residual = 0.000589545, No Iterations 8
GAMG:  Solving for p, Initial residual = 0.00595809, Final residual = 5.64492e-05, No Iterations 11
GAMG:  Solving for p, Initial residual = 0.000615746, Final residual = 6.04934e-06, No Iterations 14
time step continuity errors : sum local = 0.000487659, global = 4.93068e-06, cumulative = -0.00023649
smoothSolver:  Solving for omega, Initial residual = 0.00222259, Final residual = 0.000128576, No Iterations 3
smoothSolver:  Solving for k, Initial residual = 0.0273487, Final residual = 0.00160311, No Iterations 3
ExecutionTime = 67 s  ClockTime = 72 s

forces forces write:
    Sum of forces
        Total    : (0.791127 0.111646 0.351106)
        Pressure : (0.762315 0.106164 0.352993)
        Viscous  : (0.0288117 0.0054813 -0.00188781)
    Sum of moments
        Total    : (-0.0022216 -3.56416 1.11332)
        Pressure : (-0.00205331 -3.58591 1.05797)
        Viscous  : (-0.000168295 0.0217524 0.055356)
    writing force and moment files.

Time = 36

smoothSolver:  Solving for Ux, Initial residual = 0.0582991, Final residual = 0.00542258, No Iterations 6
smoothSolver:  Solving for Uy, Initial residual = 0.139588, Final residual = 0.0128394, No Iterations 7
smoothSolver:  Solving for Uz, Initial residual = 0.0888471, Final residual = 0.00720201, No Iterations 7
GAMG:  Solving for p, Initial residual = 0.0730518, Final residual = 0.00055499, No Iterations 8
GAMG:  Solving for p, Initial residual = 0.00585081, Final residual = 5.4659e-05, No Iterations 11
GAMG:  Solving for p, Initial residual = 0.000622208, Final residual = 6.07512e-06, No Iterations 14
time step continuity errors : sum local = 0.000463721, global = -3.28523e-06, cumulative = -0.000239775
smoothSolver:  Solving for omega, Initial residual = 0.00203265, Final residual = 0.000119758, No Iterations 3
smoothSolver:  Solving for k, Initial residual = 0.0258334, Final residual = 0.00157739, No Iterations 3
ExecutionTime = 68.76 s  ClockTime = 74 s

forces forces write:
    Sum of forces
        Total    : (0.768188 0.0829254 0.384345)
        Pressure : (0.738186 0.078125 0.386115)
        Viscous  : (0.0300016 0.00480042 -0.00177063)
    Sum of moments
        Total    : (-0.00185187 -3.90471 0.823255)
        Pressure : (-0.00170841 -3.9252 0.774763)
        Viscous  : (-0.00014346 0.0204911 0.0484922)
    writing force and moment files.

Time = 37

smoothSolver:  Solving for Ux, Initial residual = 0.0534279, Final residual = 0.0050372, No Iterations 6
smoothSolver:  Solving for Uy, Initial residual = 0.132364, Final residual = 0.0122029, No Iterations 7
smoothSolver:  Solving for Uz, Initial residual = 0.0848343, Final residual = 0.00684773, No Iterations 7
GAMG:  Solving for p, Initial residual = 0.0720924, Final residual = 0.000557535, No Iterations 8
GAMG:  Solving for p, Initial residual = 0.00584925, Final residual = 5.42741e-05, No Iterations 11
GAMG:  Solving for p, Initial residual = 0.000630491, Final residual = 5.97102e-06, No Iterations 14
time step continuity errors : sum local = 0.000430834, global = -4.19947e-06, cumulative = -0.000243975
smoothSolver:  Solving for omega, Initial residual = 0.00185873, Final residual = 0.000112271, No Iterations 3
smoothSolver:  Solving for k, Initial residual = 0.0242374, Final residual = 0.00154547, No Iterations 3
ExecutionTime = 70.46 s  ClockTime = 76 s

forces forces write:
    Sum of forces
        Total    : (0.744512 0.0532082 0.433431)
        Pressure : (0.713733 0.0492632 0.435118)
        Viscous  : (0.0307784 0.00394503 -0.00168734)
    Sum of moments
        Total    : (-0.00164817 -4.40464 0.523767)
        Pressure : (-0.00154038 -4.42422 0.483938)
        Viscous  : (-0.000107788 0.0195787 0.0398295)
    writing force and moment files.

Time = 38

smoothSolver:  Solving for Ux, Initial residual = 0.0489519, Final residual = 0.00467388, No Iterations 6
smoothSolver:  Solving for Uy, Initial residual = 0.125367, Final residual = 0.0116146, No Iterations 7
smoothSolver:  Solving for Uz, Initial residual = 0.0814766, Final residual = 0.00653945, No Iterations 7
GAMG:  Solving for p, Initial residual = 0.0712384, Final residual = 0.000581965, No Iterations 8
GAMG:  Solving for p, Initial residual = 0.00583535, Final residual = 5.45916e-05, No Iterations 11
GAMG:  Solving for p, Initial residual = 0.000630026, Final residual = 6.03257e-06, No Iterations 14
time step continuity errors : sum local = 0.000412027, global = -4.12574e-06, cumulative = -0.0002481
smoothSolver:  Solving for omega, Initial residual = 0.00169823, Final residual = 0.000105719, No Iterations 3
smoothSolver:  Solving for k, Initial residual = 0.0227262, Final residual = 0.00151233, No Iterations 3
ExecutionTime = 72.24 s  ClockTime = 78 s

forces forces write:
    Sum of forces
        Total    : (0.731058 0.0253176 0.484337)
        Pressure : (0.699806 0.0224284 0.48577)
        Viscous  : (0.0312517 0.00288927 -0.00143314)
    Sum of moments
        Total    : (-0.00141514 -4.92165 0.243855)
        Pressure : (-0.00135311 -4.93855 0.214699)
        Viscous  : (-6.20312e-05 0.0169048 0.0291554)
    writing force and moment files.

Time = 39

smoothSolver:  Solving for Ux, Initial residual = 0.0448283, Final residual = 0.00433166, No Iterations 6
smoothSolver:  Solving for Uy, Initial residual = 0.119559, Final residual = 0.0110693, No Iterations 7
smoothSolver:  Solving for Uz, Initial residual = 0.0783364, Final residual = 0.00630638, No Iterations 7
GAMG:  Solving for p, Initial residual = 0.0702194, Final residual = 0.000603103, No Iterations 8
GAMG:  Solving for p, Initial residual = 0.00575553, Final residual = 5.46882e-05, No Iterations 11
GAMG:  Solving for p, Initial residual = 0.000622749, Final residual = 5.98225e-06, No Iterations 14
time step continuity errors : sum local = 0.00038722, global = -3.99019e-06, cumulative = -0.000252091
smoothSolver:  Solving for omega, Initial residual = 0.00155389, Final residual = 9.97394e-05, No Iterations 3
smoothSolver:  Solving for k, Initial residual = 0.0212849, Final residual = 0.00147181, No Iterations 3
ExecutionTime = 73.99 s  ClockTime = 79 s

forces forces write:
    Sum of forces
        Total    : (0.723727 -4.84916e-05 0.528282)
        Pressure : (0.691762 -0.00194732 0.529407)
        Viscous  : (0.0319645 0.00189882 -0.00112508)
    Sum of moments
        Total    : (-0.000938721 -5.36698 -0.00981738)
        Pressure : (-0.000917477 -5.38065 -0.0289558)
        Viscous  : (-2.12442e-05 0.0136733 0.0191384)
    writing force and moment files.

Time = 40

smoothSolver:  Solving for Ux, Initial residual = 0.0410328, Final residual = 0.00402326, No Iterations 6
smoothSolver:  Solving for Uy, Initial residual = 0.114541, Final residual = 0.0105914, No Iterations 7
smoothSolver:  Solving for Uz, Initial residual = 0.0758525, Final residual = 0.0061247, No Iterations 7
GAMG:  Solving for p, Initial residual = 0.0691119, Final residual = 0.000623982, No Iterations 8
GAMG:  Solving for p, Initial residual = 0.00571836, Final residual = 4.65784e-05, No Iterations 12
GAMG:  Solving for p, Initial residual = 0.00061917, Final residual = 5.80694e-06, No Iterations 14
time step continuity errors : sum local = 0.000355834, global = -3.86575e-06, cumulative = -0.000255956
smoothSolver:  Solving for omega, Initial residual = 0.00142939, Final residual = 9.38789e-05, No Iterations 3
smoothSolver:  Solving for k, Initial residual = 0.0199816, Final residual = 0.00142827, No Iterations 3
ExecutionTime = 75.73 s  ClockTime = 81 s

forces forces write:
    Sum of forces
        Total    : (0.723448 -0.0204998 0.561977)
        Pressure : (0.690503 -0.0213991 0.562754)
        Viscous  : (0.0329449 0.000899297 -0.000776995)
    Sum of moments
        Total    : (-0.000399353 -5.70769 -0.213476)
        Pressure : (-0.000417229 -5.71774 -0.222531)
        Viscous  : (1.78764e-05 0.0100519 0.00905476)
    writing force and moment files.

Time = 41

smoothSolver:  Solving for Ux, Initial residual = 0.0377209, Final residual = 0.00374512, No Iterations 6
smoothSolver:  Solving for Uy, Initial residual = 0.110491, Final residual = 0.0101767, No Iterations 7
smoothSolver:  Solving for Uz, Initial residual = 0.0740258, Final residual = 0.00595742, No Iterations 7
GAMG:  Solving for p, Initial residual = 0.0682818, Final residual = 0.000640113, No Iterations 8
GAMG:  Solving for p, Initial residual = 0.00572143, Final residual = 5.01119e-05, No Iterations 12
GAMG:  Solving for p, Initial residual = 0.000626738, Final residual = 5.30377e-06, No Iterations 15
time step continuity errors : sum local = 0.000308011, global = -3.46539e-06, cumulative = -0.000259422
smoothSolver:  Solving for omega, Initial residual = 0.0013245, Final residual = 8.87919e-05, No Iterations 3
smoothSolver:  Solving for k, Initial residual = 0.0188187, Final residual = 0.00138556, No Iterations 3
ExecutionTime = 77.54 s  ClockTime = 83 s

forces forces write:
    Sum of forces
        Total    : (0.72142 -0.0343708 0.583614)
        Pressure : (0.687762 -0.0345819 0.584194)
        Viscous  : (0.033658 0.000211168 -0.000579559)
    Sum of moments
        Total    : (-5.6705e-05 -5.92628 -0.350798)
        Pressure : (-0.000101008 -5.93422 -0.352908)
        Viscous  : (4.43032e-05 0.00793707 0.00211052)
    writing force and moment files.

Time = 42

smoothSolver:  Solving for Ux, Initial residual = 0.0347423, Final residual = 0.00259145, No Iterations 7
smoothSolver:  Solving for Uy, Initial residual = 0.107501, Final residual = 0.00983269, No Iterations 7
smoothSolver:  Solving for Uz, Initial residual = 0.0721789, Final residual = 0.00577631, No Iterations 7
GAMG:  Solving for p, Initial residual = 0.0676621, Final residual = 0.000650326, No Iterations 8
GAMG:  Solving for p, Initial residual = 0.005784, Final residual = 5.30564e-05, No Iterations 12
GAMG:  Solving for p, Initial residual = 0.000634306, Final residual = 5.7698e-06, No Iterations 15
time step continuity errors : sum local = 0.000314685, global = -3.81412e-06, cumulative = -0.000263236
smoothSolver:  Solving for omega, Initial residual = 0.00123371, Final residual = 8.42113e-05, No Iterations 3
smoothSolver:  Solving for k, Initial residual = 0.0178169, Final residual = 0.00134617, No Iterations 3
ExecutionTime = 79.33 s  ClockTime = 85 s

forces forces write:
    Sum of forces
        Total    : (0.70876 -0.0453628 0.60015)
        Pressure : (0.674199 -0.0449954 0.600564)
        Viscous  : (0.034561 -0.000367399 -0.000414208)
    Sum of moments
        Total    : (0.000243778 -6.09304 -0.459924)
        Pressure : (0.000178331 -6.09922 -0.456206)
        Viscous  : (6.54465e-05 0.00618139 -0.00371769)
    writing force and moment files.

Time = 43

smoothSolver:  Solving for Ux, Initial residual = 0.0318396, Final residual = 0.00238005, No Iterations 7
smoothSolver:  Solving for Uy, Initial residual = 0.105231, Final residual = 0.0096357, No Iterations 7
smoothSolver:  Solving for Uz, Initial residual = 0.0700798, Final residual = 0.00561294, No Iterations 7
GAMG:  Solving for p, Initial residual = 0.0673418, Final residual = 0.00065119, No Iterations 8
GAMG:  Solving for p, Initial residual = 0.00581159, Final residual = 5.41753e-05, No Iterations 12
GAMG:  Solving for p, Initial residual = 0.000638973, Final residual = 5.99103e-06, No Iterations 15
time step continuity errors : sum local = 0.00030722, global = -4.02343e-06, cumulative = -0.000267259
smoothSolver:  Solving for omega, Initial residual = 0.00115168, Final residual = 7.99826e-05, No Iterations 3
smoothSolver:  Solving for k, Initial residual = 0.0169556, Final residual = 0.00131031, No Iterations 3
ExecutionTime = 81.09 s  ClockTime = 87 s

forces forces write:
    Sum of forces
        Total    : (0.697276 -0.0530369 0.604815)
        Pressure : (0.661671 -0.0523375 0.605206)
        Viscous  : (0.0356054 -0.00069942 -0.000391722)
    Sum of moments
        Total    : (0.00042544 -6.1394 -0.536237)
        Pressure : (0.000342853 -6.14528 -0.529168)
        Viscous  : (8.25866e-05 0.00588161 -0.0070687)
    writing force and moment files.

Time = 44

smoothSolver:  Solving for Ux, Initial residual = 0.029243, Final residual = 0.00218629, No Iterations 7
smoothSolver:  Solving for Uy, Initial residual = 0.102557, Final residual = 0.00942378, No Iterations 7
smoothSolver:  Solving for Uz, Initial residual = 0.0678667, Final residual = 0.0054539, No Iterations 7
GAMG:  Solving for p, Initial residual = 0.0669407, Final residual = 0.000637741, No Iterations 8
GAMG:  Solving for p, Initial residual = 0.00579581, Final residual = 5.62225e-05, No Iterations 12
GAMG:  Solving for p, Initial residual = 0.000643276, Final residual = 6.12899e-06, No Iterations 15
time step continuity errors : sum local = 0.000294991, global = -4.21474e-06, cumulative = -0.000271474
smoothSolver:  Solving for omega, Initial residual = 0.00108037, Final residual = 7.62833e-05, No Iterations 3
smoothSolver:  Solving for k, Initial residual = 0.0161723, Final residual = 0.00127643, No Iterations 3
ExecutionTime = 82.89 s  ClockTime = 88 s

forces forces write:
    Sum of forces
        Total    : (0.685854 -0.0585038 0.604324)
        Pressure : (0.649369 -0.0576519 0.60461)
        Viscous  : (0.0364854 -0.00085194 -0.000285572)
    Sum of moments
        Total    : (0.000615126 -6.13332 -0.590728)
        Pressure : (0.000516619 -6.13808 -0.582127)
        Viscous  : (9.85075e-05 0.00475963 -0.00860036)
    writing force and moment files.

Time = 45

smoothSolver:  Solving for Ux, Initial residual = 0.0269197, Final residual = 0.00201431, No Iterations 7
smoothSolver:  Solving for Uy, Initial residual = 0.099328, Final residual = 0.00921824, No Iterations 7
smoothSolver:  Solving for Uz, Initial residual = 0.0656718, Final residual = 0.00531495, No Iterations 7
GAMG:  Solving for p, Initial residual = 0.0663568, Final residual = 0.000604047, No Iterations 8
GAMG:  Solving for p, Initial residual = 0.00572083, Final residual = 5.57274e-05, No Iterations 12
GAMG:  Solving for p, Initial residual = 0.000637243, Final residual = 6.33316e-06, No Iterations 15
time step continuity errors : sum local = 0.000286945, global = -3.21642e-06, cumulative = -0.00027469
smoothSolver:  Solving for omega, Initial residual = 0.00101185, Final residual = 7.21982e-05, No Iterations 3
smoothSolver:  Solving for k, Initial residual = 0.0154497, Final residual = 0.00124293, No Iterations 3
ExecutionTime = 84.65 s  ClockTime = 90 s

forces forces write:
    Sum of forces
        Total    : (0.677874 -0.0619238 0.601045)
        Pressure : (0.6406 -0.0611074 0.601224)
        Viscous  : (0.0372736 -0.000816473 -0.000178642)
    Sum of moments
        Total    : (0.000906893 -6.0989 -0.624817)
        Pressure : (0.000799528 -6.10254 -0.616576)
        Viscous  : (0.000107365 0.00364344 -0.00824086)
    writing force and moment files.

Time = 46

smoothSolver:  Solving for Ux, Initial residual = 0.0248893, Final residual = 0.0018692, No Iterations 7
smoothSolver:  Solving for Uy, Initial residual = 0.095963, Final residual = 0.00901229, No Iterations 7
smoothSolver:  Solving for Uz, Initial residual = 0.0635075, Final residual = 0.00520547, No Iterations 7
GAMG:  Solving for p, Initial residual = 0.0658901, Final residual = 0.000566086, No Iterations 8
GAMG:  Solving for p, Initial residual = 0.00563772, Final residual = 5.54107e-05, No Iterations 12
GAMG:  Solving for p, Initial residual = 0.000627761, Final residual = 5.29921e-06, No Iterations 16
time step continuity errors : sum local = 0.000226439, global = 2.38213e-06, cumulative = -0.000272308
smoothSolver:  Solving for omega, Initial residual = 0.000951394, Final residual = 6.84372e-05, No Iterations 3
smoothSolver:  Solving for k, Initial residual = 0.0148047, Final residual = 0.00120864, No Iterations 3
ExecutionTime = 86.43 s  ClockTime = 92 s

forces forces write:
    Sum of forces
        Total    : (0.675382 -0.0620948 0.597319)
        Pressure : (0.637273 -0.0613591 0.597371)
        Viscous  : (0.0381095 -0.000735691 -5.21731e-05)
    Sum of moments
        Total    : (0.00111696 -6.05971 -0.626135)
        Pressure : (0.00100724 -6.06207 -0.618707)
        Viscous  : (0.000109723 0.00236273 -0.00742846)
    writing force and moment files.

Time = 47

smoothSolver:  Solving for Ux, Initial residual = 0.0230466, Final residual = 0.00174656, No Iterations 7
smoothSolver:  Solving for Uy, Initial residual = 0.0929081, Final residual = 0.00877525, No Iterations 7
smoothSolver:  Solving for Uz, Initial residual = 0.0618122, Final residual = 0.00512316, No Iterations 7
GAMG:  Solving for p, Initial residual = 0.0653775, Final residual = 0.000547275, No Iterations 8
GAMG:  Solving for p, Initial residual = 0.00557791, Final residual = 4.69373e-05, No Iterations 13
GAMG:  Solving for p, Initial residual = 0.000616321, Final residual = 6.08712e-06, No Iterations 15
time step continuity errors : sum local = 0.000246115, global = 3.02636e-06, cumulative = -0.000269282
smoothSolver:  Solving for omega, Initial residual = 0.000898312, Final residual = 6.48465e-05, No Iterations 3
smoothSolver:  Solving for k, Initial residual = 0.0142164, Final residual = 0.00117551, No Iterations 3
ExecutionTime = 88.27 s  ClockTime = 94 s

forces forces write:
    Sum of forces
        Total    : (0.678554 -0.0578796 0.590136)
        Pressure : (0.639835 -0.0572271 0.590031)
        Viscous  : (0.0387194 -0.000652467 0.000104567)
    Sum of moments
        Total    : (0.00108101 -5.9854 -0.583171)
        Pressure : (0.000972391 -5.98618 -0.576574)
        Viscous  : (0.000108617 0.000772313 -0.00659666)
    writing force and moment files.

Time = 48

smoothSolver:  Solving for Ux, Initial residual = 0.0213382, Final residual = 0.00164131, No Iterations 7
smoothSolver:  Solving for Uy, Initial residual = 0.0904747, Final residual = 0.00851523, No Iterations 7
smoothSolver:  Solving for Uz, Initial residual = 0.0610118, Final residual = 0.00505857, No Iterations 7
GAMG:  Solving for p, Initial residual = 0.0646045, Final residual = 0.000555021, No Iterations 8
GAMG:  Solving for p, Initial residual = 0.00556891, Final residual = 5.05044e-05, No Iterations 13
GAMG:  Solving for p, Initial residual = 0.000618381, Final residual = 5.6123e-06, No Iterations 16
time step continuity errors : sum local = 0.00021383, global = 2.69482e-06, cumulative = -0.000266587
smoothSolver:  Solving for omega, Initial residual = 0.000849961, Final residual = 6.16067e-05, No Iterations 3
smoothSolver:  Solving for k, Initial residual = 0.0136806, Final residual = 0.0011434, No Iterations 3
ExecutionTime = 90.07 s  ClockTime = 96 s

forces forces write:
    Sum of forces
        Total    : (0.683712 -0.0481993 0.577977)
        Pressure : (0.644494 -0.0476724 0.577669)
        Viscous  : (0.0392181 -0.000526942 0.000308101)
    Sum of moments
        Total    : (0.000718559 -5.86051 -0.484992)
        Pressure : (0.000617244 -5.85924 -0.479651)
        Viscous  : (0.000101315 -0.00127476 -0.00534132)
    writing force and moment files.

Time = 49

smoothSolver:  Solving for Ux, Initial residual = 0.0197492, Final residual = 0.00155068, No Iterations 7
smoothSolver:  Solving for Uy, Initial residual = 0.0881176, Final residual = 0.00822921, No Iterations 7
smoothSolver:  Solving for Uz, Initial residual = 0.0603291, Final residual = 0.00500717, No Iterations 7
GAMG:  Solving for p, Initial residual = 0.063569, Final residual = 0.000567841, No Iterations 8
GAMG:  Solving for p, Initial residual = 0.00549246, Final residual = 5.37314e-05, No Iterations 13
GAMG:  Solving for p, Initial residual = 0.000615617, Final residual = 5.21321e-06, No Iterations 17
time step continuity errors : sum local = 0.000188348, global = 2.42421e-06, cumulative = -0.000264163
smoothSolver:  Solving for omega, Initial residual = 0.000805178, Final residual = 5.86546e-05, No Iterations 3
smoothSolver:  Solving for k, Initial residual = 0.0131709, Final residual = 0.00111333, No Iterations 3
ExecutionTime = 91.93 s  ClockTime = 97 s

forces forces write:
    Sum of forces
        Total    : (0.690594 -0.0321179 0.559095)
        Pressure : (0.650926 -0.0316963 0.558546)
        Viscous  : (0.039668 -0.000421632 0.00054912)
    Sum of moments
        Total    : (-9.73788e-06 -5.6674 -0.321922)
        Pressure : (-0.000102854 -5.6637 -0.317629)
        Viscous  : (9.31156e-05 -0.00369822 -0.00429327)
    writing force and moment files.

Time = 50

smoothSolver:  Solving for Ux, Initial residual = 0.0182506, Final residual = 0.00146997, No Iterations 7
smoothSolver:  Solving for Uy, Initial residual = 0.0854801, Final residual = 0.00792513, No Iterations 7
smoothSolver:  Solving for Uz, Initial residual = 0.0594728, Final residual = 0.00496578, No Iterations 7
GAMG:  Solving for p, Initial residual = 0.0622487, Final residual = 0.000582833, No Iterations 8
GAMG:  Solving for p, Initial residual = 0.00542575, Final residual = 4.62711e-05, No Iterations 14
GAMG:  Solving for p, Initial residual = 0.000608467, Final residual = 5.23704e-06, No Iterations 17
time step continuity errors : sum local = 0.00017884, global = 2.50861e-06, cumulative = -0.000261654
smoothSolver:  Solving for omega, Initial residual = 0.00076342, Final residual = 5.59188e-05, No Iterations 3
smoothSolver:  Solving for k, Initial residual = 0.0126728, Final residual = 0.00108528, No Iterations 3
ExecutionTime = 93.87 s  ClockTime = 99 s

forces forces write:
    Sum of forces
        Total    : (0.695749 -0.0101843 0.537456)
        Pressure : (0.655694 -0.00999566 0.536615)
        Viscous  : (0.0400548 -0.000188591 0.000840524)
    Sum of moments
        Total    : (-0.000990333 -5.44639 -0.0993268)
        Pressure : (-0.00106968 -5.43977 -0.0973776)
        Viscous  : (7.93508e-05 -0.00662799 -0.00194917)
    writing force and moment files.

Time = 51

smoothSolver:  Solving for Ux, Initial residual = 0.0168875, Final residual = 0.00139538, No Iterations 7
smoothSolver:  Solving for Uy, Initial residual = 0.082449, Final residual = 0.00759842, No Iterations 7
smoothSolver:  Solving for Uz, Initial residual = 0.0585575, Final residual = 0.00491807, No Iterations 7
GAMG:  Solving for p, Initial residual = 0.0607441, Final residual = 0.000595569, No Iterations 8
GAMG:  Solving for p, Initial residual = 0.00531145, Final residual = 4.65544e-05, No Iterations 14
GAMG:  Solving for p, Initial residual = 0.000598521, Final residual = 5.37752e-06, No Iterations 17
time step continuity errors : sum local = 0.000174818, global = 1.6596e-06, cumulative = -0.000259995
smoothSolver:  Solving for omega, Initial residual = 0.000723467, Final residual = 5.33812e-05, No Iterations 3
smoothSolver:  Solving for k, Initial residual = 0.0122027, Final residual = 0.00105967, No Iterations 3
ExecutionTime = 95.75 s  ClockTime = 101 s

forces forces write:
    Sum of forces
        Total    : (0.70018 0.014507 0.515701)
        Pressure : (0.659678 0.0144447 0.514614)
        Viscous  : (0.0405025 6.23228e-05 0.00108653)
    Sum of moments
        Total    : (-0.00202814 -5.22427 0.151563)
        Pressure : (-0.0020927 -5.21518 0.150978)
        Viscous  : (6.45649e-05 -0.0090884 0.000585052)
    writing force and moment files.

Time = 52

smoothSolver:  Solving for Ux, Initial residual = 0.0156403, Final residual = 0.00132345, No Iterations 7
smoothSolver:  Solving for Uy, Initial residual = 0.0791379, Final residual = 0.00724852, No Iterations 7
smoothSolver:  Solving for Uz, Initial residual = 0.057788, Final residual = 0.00485842, No Iterations 7
GAMG:  Solving for p, Initial residual = 0.0591357, Final residual = 0.000460514, No Iterations 9
GAMG:  Solving for p, Initial residual = 0.00509272, Final residual = 5.05746e-05, No Iterations 13
GAMG:  Solving for p, Initial residual = 0.000570689, Final residual = 5.40953e-06, No Iterations 17
time step continuity errors : sum local = 0.000167001, global = 1.12762e-06, cumulative = -0.000258867
smoothSolver:  Solving for omega, Initial residual = 0.000686532, Final residual = 5.09651e-05, No Iterations 3
smoothSolver:  Solving for k, Initial residual = 0.0117656, Final residual = 0.00103591, No Iterations 3
ExecutionTime = 97.67 s  ClockTime = 103 s

forces forces write:
    Sum of forces
        Total    : (0.700623 0.0372898 0.495336)
        Pressure : (0.659708 0.0368807 0.494046)
        Viscous  : (0.0409156 0.00040914 0.00129035)
    Sum of moments
        Total    : (-0.00290154 -5.01632 0.383413)
        Pressure : (-0.00294733 -5.00521 0.37931)
        Viscous  : (4.57962e-05 -0.0111093 0.00410287)
    writing force and moment files.

Time = 53

smoothSolver:  Solving for Ux, Initial residual = 0.0145897, Final residual = 0.00125232, No Iterations 7
smoothSolver:  Solving for Uy, Initial residual = 0.0757698, Final residual = 0.00687011, No Iterations 7
smoothSolver:  Solving for Uz, Initial residual = 0.0571047, Final residual = 0.00479796, No Iterations 7
GAMG:  Solving for p, Initial residual = 0.0577614, Final residual = 0.000459104, No Iterations 9
GAMG:  Solving for p, Initial residual = 0.00494593, Final residual = 4.19628e-05, No Iterations 14
GAMG:  Solving for p, Initial residual = 0.000552721, Final residual = 4.99023e-06, No Iterations 17
time step continuity errors : sum local = 0.000146964, global = 1.31529e-06, cumulative = -0.000257552
smoothSolver:  Solving for omega, Initial residual = 0.000652959, Final residual = 4.86144e-05, No Iterations 3
smoothSolver:  Solving for k, Initial residual = 0.0113636, Final residual = 0.00101362, No Iterations 3
ExecutionTime = 99.61 s  ClockTime = 105 s

forces forces write:
    Sum of forces
        Total    : (0.697798 0.0533098 0.477633)
        Pressure : (0.656294 0.0526249 0.476209)
        Viscous  : (0.0415033 0.000684966 0.0014239)
    Sum of moments
        Total    : (-0.00342448 -4.83554 0.546863)
        Pressure : (-0.00345357 -4.82314 0.53995)
        Viscous  : (2.90953e-05 -0.0123998 0.00691224)
    writing force and moment files.

Time = 54

smoothSolver:  Solving for Ux, Initial residual = 0.0137289, Final residual = 0.00118251, No Iterations 7
smoothSolver:  Solving for Uy, Initial residual = 0.0724558, Final residual = 0.00647284, No Iterations 7
smoothSolver:  Solving for Uz, Initial residual = 0.0565029, Final residual = 0.00473318, No Iterations 7
GAMG:  Solving for p, Initial residual = 0.0565506, Final residual = 0.00045529, No Iterations 9
GAMG:  Solving for p, Initial residual = 0.00483773, Final residual = 4.18656e-05, No Iterations 14
GAMG:  Solving for p, Initial residual = 0.000542876, Final residual = 4.9918e-06, No Iterations 17
time step continuity errors : sum local = 0.000139653, global = 1.38402e-06, cumulative = -0.000256168
smoothSolver:  Solving for omega, Initial residual = 0.000620431, Final residual = 4.62248e-05, No Iterations 3
smoothSolver:  Solving for k, Initial residual = 0.0109809, Final residual = 0.000992091, No Iterations 3
ExecutionTime = 101.51 s  ClockTime = 107 s

forces forces write:
    Sum of forces
        Total    : (0.690656 0.060866 0.462588)
        Pressure : (0.648617 0.0599178 0.461015)
        Viscous  : (0.0420391 0.000948258 0.00157367)
    Sum of moments
        Total    : (-0.00356263 -4.68209 0.624481)
        Pressure : (-0.00357615 -4.66824 0.614882)
        Viscous  : (1.35248e-05 -0.0138515 0.00959929)
    writing force and moment files.

Time = 55

smoothSolver:  Solving for Ux, Initial residual = 0.0130113, Final residual = 0.00111652, No Iterations 7
smoothSolver:  Solving for Uy, Initial residual = 0.0691829, Final residual = 0.00609518, No Iterations 7
smoothSolver:  Solving for Uz, Initial residual = 0.055883, Final residual = 0.00465193, No Iterations 7
GAMG:  Solving for p, Initial residual = 0.055405, Final residual = 0.000449597, No Iterations 9
GAMG:  Solving for p, Initial residual = 0.00472007, Final residual = 4.1213e-05, No Iterations 14
GAMG:  Solving for p, Initial residual = 0.000530038, Final residual = 4.96018e-06, No Iterations 17
time step continuity errors : sum local = 0.000132272, global = 1.27885e-06, cumulative = -0.000254889
smoothSolver:  Solving for omega, Initial residual = 0.000589835, Final residual = 4.40812e-05, No Iterations 3
smoothSolver:  Solving for k, Initial residual = 0.0106198, Final residual = 0.000971607, No Iterations 3
ExecutionTime = 103.48 s  ClockTime = 109 s

forces forces write:
    Sum of forces
        Total    : (0.679986 0.0607189 0.449472)
        Pressure : (0.637335 0.0596246 0.447754)
        Viscous  : (0.042651 0.00109428 0.00171877)
    Sum of moments
        Total    : (-0.00337065 -4.54872 0.623845)
        Pressure : (-0.00337245 -4.53347 0.612733)
        Viscous  : (1.79684e-06 -0.0152478 0.0111114)
    writing force and moment files.

Time = 56

smoothSolver:  Solving for Ux, Initial residual = 0.012387, Final residual = 0.00105825, No Iterations 7
smoothSolver:  Solving for Uy, Initial residual = 0.0660356, Final residual = 0.00574606, No Iterations 7
smoothSolver:  Solving for Uz, Initial residual = 0.0551684, Final residual = 0.00456266, No Iterations 7
GAMG:  Solving for p, Initial residual = 0.0541469, Final residual = 0.000444807, No Iterations 9
GAMG:  Solving for p, Initial residual = 0.0046006, Final residual = 4.02308e-05, No Iterations 14
GAMG:  Solving for p, Initial residual = 0.000514372, Final residual = 4.88139e-06, No Iterations 17
[...]
ExecutionTime = 826.4 s  ClockTime = 846 s

forces forces write:
    Sum of forces
        Total    : (0.496863 -0.0041044 0.336192)
        Pressure : (0.430637 -0.003658 0.33326)
        Viscous  : (0.066226 -0.000446405 0.00293267)
    Sum of moments
        Total    : (0.000257449 -3.42076 -0.0422398)
        Pressure : (0.000203379 -3.39416 -0.0377351)
        Viscous  : (5.40703e-05 -0.0265987 -0.00450469)
    writing force and moment files.

fieldAverage fieldAverage write:
    Calculating averages

Time = 488

smoothSolver:  Solving for Ux, Initial residual = 0.000215426, Final residual = 2.01439e-05, No Iterations 8
smoothSolver:  Solving for Uy, Initial residual = 0.00132283, Final residual = 0.000116958, No Iterations 8
smoothSolver:  Solving for Uz, Initial residual = 0.00149458, Final residual = 0.000116414, No Iterations 8
GAMG:  Solving for p, Initial residual = 0.00161461, Final residual = 1.14259e-05, No Iterations 6
GAMG:  Solving for p, Initial residual = 0.000186618, Final residual = 1.59343e-06, No Iterations 6
GAMG:  Solving for p, Initial residual = 1.93159e-05, Final residual = 1.61006e-07, No Iterations 10
time step continuity errors : sum local = 1.61176e-06, global = -1.86648e-08, cumulative = -0.000268843
smoothSolver:  Solving for omega, Initial residual = 1.66775e-05, Final residual = 1.45224e-06, No Iterations 3
smoothSolver:  Solving for k, Initial residual = 0.000145692, Final residual = 1.43598e-05, No Iterations 3
ExecutionTime = 828 s  ClockTime = 848 s

forces forces write:
    Sum of forces
        Total    : (0.496825 -0.00443303 0.336174)
        Pressure : (0.430616 -0.0039323 0.333244)
        Viscous  : (0.0662092 -0.000500736 0.00293034)
    Sum of moments
        Total    : (0.000288759 -3.42055 -0.0455837)
        Pressure : (0.00022966 -3.39398 -0.04053)
        Viscous  : (5.90992e-05 -0.0265766 -0.00505367)
    writing force and moment files.

fieldAverage fieldAverage write:
    Calculating averages

Time = 489

smoothSolver:  Solving for Ux, Initial residual = 0.000216646, Final residual = 2.03653e-05, No Iterations 8
smoothSolver:  Solving for Uy, Initial residual = 0.00132139, Final residual = 0.000117282, No Iterations 8
smoothSolver:  Solving for Uz, Initial residual = 0.00150114, Final residual = 0.000118353, No Iterations 8
GAMG:  Solving for p, Initial residual = 0.0016136, Final residual = 1.14213e-05, No Iterations 6
GAMG:  Solving for p, Initial residual = 0.000186275, Final residual = 1.59228e-06, No Iterations 6
GAMG:  Solving for p, Initial residual = 1.92428e-05, Final residual = 1.63248e-07, No Iterations 10
time step continuity errors : sum local = 1.63461e-06, global = -4.70929e-08, cumulative = -0.00026889
smoothSolver:  Solving for omega, Initial residual = 1.66702e-05, Final residual = 1.46343e-06, No Iterations 3
smoothSolver:  Solving for k, Initial residual = 0.000146631, Final residual = 1.45142e-05, No Iterations 3
ExecutionTime = 829.62 s  ClockTime = 850 s

forces forces write:
    Sum of forces
        Total    : (0.496692 -0.00471181 0.336126)
        Pressure : (0.430494 -0.0041623 0.333197)
        Viscous  : (0.0661987 -0.000549504 0.00292971)
    Sum of moments
        Total    : (0.000316426 -3.42006 -0.0484195)
        Pressure : (0.000252943 -3.39349 -0.0428729)
        Viscous  : (6.34834e-05 -0.0265709 -0.00554654)
    writing force and moment files.

fieldAverage fieldAverage write:
    Calculating averages

Time = 490

smoothSolver:  Solving for Ux, Initial residual = 0.00021934, Final residual = 2.06939e-05, No Iterations 8
smoothSolver:  Solving for Uy, Initial residual = 0.00132861, Final residual = 0.000118625, No Iterations 8
smoothSolver:  Solving for Uz, Initial residual = 0.00151595, Final residual = 0.000120962, No Iterations 8
GAMG:  Solving for p, Initial residual = 0.00161446, Final residual = 1.16565e-05, No Iterations 6
GAMG:  Solving for p, Initial residual = 0.000187096, Final residual = 1.57924e-06, No Iterations 6
GAMG:  Solving for p, Initial residual = 1.93141e-05, Final residual = 1.62557e-07, No Iterations 10
time step continuity errors : sum local = 1.62811e-06, global = -6.29723e-08, cumulative = -0.000268953
smoothSolver:  Solving for omega, Initial residual = 1.67141e-05, Final residual = 1.47951e-06, No Iterations 3
smoothSolver:  Solving for k, Initial residual = 0.000147154, Final residual = 1.4659e-05, No Iterations 3
ExecutionTime = 831.15 s  ClockTime = 851 s

forces forces write:
    Sum of forces
        Total    : (0.496482 -0.00493713 0.336025)
        Pressure : (0.430287 -0.00434786 0.333093)
        Viscous  : (0.0661949 -0.000589271 0.00293162)
    Sum of moments
        Total    : (0.000339771 -3.41903 -0.0507117)
        Pressure : (0.000272759 -3.39244 -0.0447629)
        Viscous  : (6.70127e-05 -0.0265902 -0.0059488)
    writing force and moment files.

fieldAverage fieldAverage write:
    Calculating averages

Time = 491

smoothSolver:  Solving for Ux, Initial residual = 0.000222532, Final residual = 2.1078e-05, No Iterations 8
smoothSolver:  Solving for Uy, Initial residual = 0.00134162, Final residual = 0.000120251, No Iterations 8
smoothSolver:  Solving for Uz, Initial residual = 0.00153818, Final residual = 0.000124175, No Iterations 8
GAMG:  Solving for p, Initial residual = 0.00162284, Final residual = 1.19752e-05, No Iterations 6
GAMG:  Solving for p, Initial residual = 0.000188888, Final residual = 1.60145e-06, No Iterations 6
GAMG:  Solving for p, Initial residual = 1.95484e-05, Final residual = 1.87043e-07, No Iterations 9
time step continuity errors : sum local = 1.87379e-06, global = 7.27936e-08, cumulative = -0.00026888
smoothSolver:  Solving for omega, Initial residual = 1.66874e-05, Final residual = 1.4949e-06, No Iterations 3
smoothSolver:  Solving for k, Initial residual = 0.000147421, Final residual = 6.86729e-06, No Iterations 4
ExecutionTime = 832.67 s  ClockTime = 853 s

forces forces write:
    Sum of forces
        Total    : (0.496221 -0.00509609 0.335856)
        Pressure : (0.430025 -0.00447827 0.332923)
        Viscous  : (0.0661967 -0.00061782 0.0029338)
    Sum of moments
        Total    : (0.000356607 -3.41733 -0.0523308)
        Pressure : (0.000287193 -3.39072 -0.0460927)
        Viscous  : (6.94136e-05 -0.0266118 -0.00623804)
    writing force and moment files.

fieldAverage fieldAverage write:
    Calculating averages

Time = 492

smoothSolver:  Solving for Ux, Initial residual = 0.000225558, Final residual = 2.14098e-05, No Iterations 8
smoothSolver:  Solving for Uy, Initial residual = 0.00135954, Final residual = 0.000121705, No Iterations 8
smoothSolver:  Solving for Uz, Initial residual = 0.00156776, Final residual = 0.000127267, No Iterations 8
GAMG:  Solving for p, Initial residual = 0.00163807, Final residual = 1.22497e-05, No Iterations 6
GAMG:  Solving for p, Initial residual = 0.000191063, Final residual = 1.60868e-06, No Iterations 6
GAMG:  Solving for p, Initial residual = 1.98827e-05, Final residual = 1.82167e-07, No Iterations 9
time step continuity errors : sum local = 1.8253e-06, global = 7.39752e-08, cumulative = -0.000268806
smoothSolver:  Solving for omega, Initial residual = 1.67578e-05, Final residual = 1.51183e-06, No Iterations 3
smoothSolver:  Solving for k, Initial residual = 0.000147032, Final residual = 6.94708e-06, No Iterations 4
ExecutionTime = 834.23 s  ClockTime = 854 s

forces forces write:
    Sum of forces
        Total    : (0.495937 -0.00521883 0.335647)
        Pressure : (0.429732 -0.00458151 0.33271)
        Viscous  : (0.0662047 -0.000637321 0.00293706)
    Sum of moments
        Total    : (0.000369654 -3.41522 -0.0535799)
        Pressure : (0.000298739 -3.38858 -0.0471438)
        Viscous  : (7.09149e-05 -0.0266437 -0.00643608)
    writing force and moment files.

fieldAverage fieldAverage write:
    Calculating averages

Time = 493

smoothSolver:  Solving for Ux, Initial residual = 0.000228085, Final residual = 2.16237e-05, No Iterations 8
smoothSolver:  Solving for Uy, Initial residual = 0.00137622, Final residual = 0.000122715, No Iterations 8
smoothSolver:  Solving for Uz, Initial residual = 0.00159416, Final residual = 0.000129652, No Iterations 8
GAMG:  Solving for p, Initial residual = 0.00165388, Final residual = 1.23988e-05, No Iterations 6
GAMG:  Solving for p, Initial residual = 0.00019291, Final residual = 1.62705e-06, No Iterations 6
GAMG:  Solving for p, Initial residual = 2.02391e-05, Final residual = 1.79547e-07, No Iterations 9
time step continuity errors : sum local = 1.79938e-06, global = 6.65946e-08, cumulative = -0.000268739
smoothSolver:  Solving for omega, Initial residual = 1.66973e-05, Final residual = 1.52289e-06, No Iterations 3
smoothSolver:  Solving for k, Initial residual = 0.000146738, Final residual = 7.00981e-06, No Iterations 4
ExecutionTime = 835.83 s  ClockTime = 856 s

forces forces write:
    Sum of forces
        Total    : (0.495652 -0.00531091 0.335419)
        Pressure : (0.429434 -0.00466138 0.332479)
        Viscous  : (0.0662177 -0.000649532 0.00294069)
    Sum of moments
        Total    : (0.000378577 -3.41292 -0.0545148)
        Pressure : (0.000306956 -3.38624 -0.0479542)
        Viscous  : (7.16216e-05 -0.026679 -0.00656058)
    writing force and moment files.

fieldAverage fieldAverage write:
    Calculating averages

Time = 494

smoothSolver:  Solving for Ux, Initial residual = 0.000229332, Final residual = 2.16965e-05, No Iterations 8
smoothSolver:  Solving for Uy, Initial residual = 0.00138826, Final residual = 0.000123139, No Iterations 8
smoothSolver:  Solving for Uz, Initial residual = 0.00161315, Final residual = 0.000131007, No Iterations 8
GAMG:  Solving for p, Initial residual = 0.00166827, Final residual = 1.24013e-05, No Iterations 6
GAMG:  Solving for p, Initial residual = 0.000193981, Final residual = 1.61543e-06, No Iterations 6
GAMG:  Solving for p, Initial residual = 2.04484e-05, Final residual = 1.79701e-07, No Iterations 9
time step continuity errors : sum local = 1.80123e-06, global = 5.93713e-08, cumulative = -0.00026868
smoothSolver:  Solving for omega, Initial residual = 1.65574e-05, Final residual = 1.51858e-06, No Iterations 3
smoothSolver:  Solving for k, Initial residual = 0.000146474, Final residual = 7.05558e-06, No Iterations 4
ExecutionTime = 837.36 s  ClockTime = 857 s

forces forces write:
    Sum of forces
        Total    : (0.49538 -0.00538667 0.335193)
        Pressure : (0.429146 -0.00472963 0.332248)
        Viscous  : (0.0662344 -0.000657042 0.00294449)
    Sum of moments
        Total    : (0.000385117 -3.41064 -0.0552789)
        Pressure : (0.000313275 -3.38392 -0.0486413)
        Viscous  : (7.1842e-05 -0.0267158 -0.00663756)
    writing force and moment files.

fieldAverage fieldAverage write:
    Calculating averages

Time = 495

smoothSolver:  Solving for Ux, Initial residual = 0.000229352, Final residual = 2.16186e-05, No Iterations 8
smoothSolver:  Solving for Uy, Initial residual = 0.00139446, Final residual = 0.000123015, No Iterations 8
smoothSolver:  Solving for Uz, Initial residual = 0.0016195, Final residual = 0.000131225, No Iterations 8
GAMG:  Solving for p, Initial residual = 0.00167558, Final residual = 1.22569e-05, No Iterations 6
GAMG:  Solving for p, Initial residual = 0.000193692, Final residual = 1.61458e-06, No Iterations 6
GAMG:  Solving for p, Initial residual = 2.04896e-05, Final residual = 1.83511e-07, No Iterations 9
time step continuity errors : sum local = 1.83966e-06, global = 1.81622e-08, cumulative = -0.000268662
smoothSolver:  Solving for omega, Initial residual = 1.63938e-05, Final residual = 1.50722e-06, No Iterations 3
smoothSolver:  Solving for k, Initial residual = 0.000146293, Final residual = 7.09088e-06, No Iterations 4
ExecutionTime = 838.95 s  ClockTime = 859 s

forces forces write:
    Sum of forces
        Total    : (0.495129 -0.00544188 0.334991)
        Pressure : (0.428877 -0.00478091 0.332044)
        Viscous  : (0.0662522 -0.000660971 0.00294609)
    Sum of moments
        Total    : (0.00038857 -3.40859 -0.0558283)
        Pressure : (0.000316903 -3.38186 -0.0491499)
        Viscous  : (7.16669e-05 -0.0267306 -0.00667835)
    writing force and moment files.

fieldAverage fieldAverage write:
    Calculating averages

Time = 496

smoothSolver:  Solving for Ux, Initial residual = 0.000228243, Final residual = 2.14184e-05, No Iterations 8
smoothSolver:  Solving for Uy, Initial residual = 0.00139722, Final residual = 0.000122703, No Iterations 8
smoothSolver:  Solving for Uz, Initial residual = 0.0016162, Final residual = 0.000130366, No Iterations 8
GAMG:  Solving for p, Initial residual = 0.00167881, Final residual = 1.1964e-05, No Iterations 6
GAMG:  Solving for p, Initial residual = 0.000192428, Final residual = 1.59027e-06, No Iterations 6
GAMG:  Solving for p, Initial residual = 2.03021e-05, Final residual = 1.71155e-07, No Iterations 9
time step continuity errors : sum local = 1.71593e-06, global = 1.96147e-08, cumulative = -0.000268642
smoothSolver:  Solving for omega, Initial residual = 1.62244e-05, Final residual = 1.48978e-06, No Iterations 3
smoothSolver:  Solving for k, Initial residual = 0.000146315, Final residual = 7.11148e-06, No Iterations 4
ExecutionTime = 840.53 s  ClockTime = 861 s

forces forces write:
    Sum of forces
        Total    : (0.494905 -0.00547448 0.334813)
        Pressure : (0.428637 -0.00481297 0.331867)
        Viscous  : (0.0662689 -0.000661508 0.00294608)
    Sum of moments
        Total    : (0.000389108 -3.4068 -0.0561414)
        Pressure : (0.000317955 -3.38007 -0.0494565)
        Viscous  : (7.11536e-05 -0.0267291 -0.0066849)
    writing force and moment files.

fieldAverage fieldAverage write:
    Calculating averages

Time = 497

smoothSolver:  Solving for Ux, Initial residual = 0.000225935, Final residual = 2.11097e-05, No Iterations 8
smoothSolver:  Solving for Uy, Initial residual = 0.00139403, Final residual = 0.000122135, No Iterations 8
smoothSolver:  Solving for Uz, Initial residual = 0.00160034, Final residual = 0.000128743, No Iterations 8
GAMG:  Solving for p, Initial residual = 0.00167396, Final residual = 1.16301e-05, No Iterations 6
GAMG:  Solving for p, Initial residual = 0.000190342, Final residual = 1.58262e-06, No Iterations 6
GAMG:  Solving for p, Initial residual = 1.99468e-05, Final residual = 1.60558e-07, No Iterations 9
time step continuity errors : sum local = 1.60978e-06, global = 1.5391e-08, cumulative = -0.000268627
smoothSolver:  Solving for omega, Initial residual = 1.60574e-05, Final residual = 1.47324e-06, No Iterations 3
smoothSolver:  Solving for k, Initial residual = 0.000146355, Final residual = 7.11378e-06, No Iterations 4
ExecutionTime = 842.05 s  ClockTime = 862 s

forces forces write:
    Sum of forces
        Total    : (0.494703 -0.00546228 0.33467)
        Pressure : (0.42842 -0.0048047 0.331727)
        Viscous  : (0.0662838 -0.000657579 0.00294315)
    Sum of moments
        Total    : (0.000385195 -3.40536 -0.0559941)
        Pressure : (0.000315002 -3.37866 -0.0493477)
        Viscous  : (7.01931e-05 -0.0266986 -0.00664642)
    writing force and moment files.

fieldAverage fieldAverage write:
    Calculating averages

Time = 498

smoothSolver:  Solving for Ux, Initial residual = 0.000222735, Final residual = 2.07237e-05, No Iterations 8
smoothSolver:  Solving for Uy, Initial residual = 0.00138773, Final residual = 0.000121359, No Iterations 8
smoothSolver:  Solving for Uz, Initial residual = 0.00157778, Final residual = 0.000126517, No Iterations 8
GAMG:  Solving for p, Initial residual = 0.00166464, Final residual = 1.13143e-05, No Iterations 6
GAMG:  Solving for p, Initial residual = 0.000187173, Final residual = 1.56228e-06, No Iterations 6
GAMG:  Solving for p, Initial residual = 1.94662e-05, Final residual = 1.58337e-07, No Iterations 9
time step continuity errors : sum local = 1.58753e-06, global = -4.69107e-10, cumulative = -0.000268627
smoothSolver:  Solving for omega, Initial residual = 1.58643e-05, Final residual = 1.45878e-06, No Iterations 3
smoothSolver:  Solving for k, Initial residual = 0.000146092, Final residual = 7.09048e-06, No Iterations 4
ExecutionTime = 843.63 s  ClockTime = 864 s

forces forces write:
    Sum of forces
        Total    : (0.494517 -0.00538664 0.334571)
        Pressure : (0.428221 -0.00473861 0.331634)
        Viscous  : (0.0662952 -0.000648025 0.00293719)
    Sum of moments
        Total    : (0.00037535 -3.40435 -0.0551981)
        Pressure : (0.000306603 -3.37771 -0.0486468)
        Viscous  : (6.87463e-05 -0.0266379 -0.00655128)
    writing force and moment files.

fieldAverage fieldAverage write:
    Calculating averages

Time = 499

smoothSolver:  Solving for Ux, Initial residual = 0.000218756, Final residual = 2.02764e-05, No Iterations 8
smoothSolver:  Solving for Uy, Initial residual = 0.00138129, Final residual = 0.00012051, No Iterations 8
smoothSolver:  Solving for Uz, Initial residual = 0.00154957, Final residual = 0.000123844, No Iterations 8
GAMG:  Solving for p, Initial residual = 0.00165026, Final residual = 1.10558e-05, No Iterations 6
GAMG:  Solving for p, Initial residual = 0.000182941, Final residual = 1.57105e-06, No Iterations 6
GAMG:  Solving for p, Initial residual = 1.88814e-05, Final residual = 1.75895e-07, No Iterations 9
time step continuity errors : sum local = 1.76359e-06, global = -2.12379e-08, cumulative = -0.000268649
smoothSolver:  Solving for omega, Initial residual = 1.56109e-05, Final residual = 1.43405e-06, No Iterations 3
smoothSolver:  Solving for k, Initial residual = 0.00014554, Final residual = 7.0344e-06, No Iterations 4
ExecutionTime = 845.15 s  ClockTime = 865 s

forces forces write:
    Sum of forces
        Total    : (0.494346 -0.00523595 0.334503)
        Pressure : (0.428042 -0.00460401 0.331576)
        Viscous  : (0.0663039 -0.000631933 0.00292663)
    Sum of moments
        Total    : (0.000359547 -3.40366 -0.0536365)
        Pressure : (0.000292793 -3.37713 -0.0472463)
        Viscous  : (6.67548e-05 -0.0265312 -0.00639025)
    writing force and moment files.

fieldAverage fieldAverage write:
    Calculating averages

Time = 500

smoothSolver:  Solving for Ux, Initial residual = 0.000214311, Final residual = 1.97576e-05, No Iterations 8
smoothSolver:  Solving for Uy, Initial residual = 0.00137446, Final residual = 0.000119445, No Iterations 8
smoothSolver:  Solving for Uz, Initial residual = 0.00152008, Final residual = 0.000120871, No Iterations 8
GAMG:  Solving for p, Initial residual = 0.00163127, Final residual = 1.07818e-05, No Iterations 6
GAMG:  Solving for p, Initial residual = 0.000178554, Final residual = 1.5697e-06, No Iterations 6
GAMG:  Solving for p, Initial residual = 1.83072e-05, Final residual = 1.46551e-07, No Iterations 10
time step continuity errors : sum local = 1.46939e-06, global = -1.58048e-08, cumulative = -0.000268664
smoothSolver:  Solving for omega, Initial residual = 1.53051e-05, Final residual = 1.40136e-06, No Iterations 3
smoothSolver:  Solving for k, Initial residual = 0.000144643, Final residual = 6.95385e-06, No Iterations 4
ExecutionTime = 846.78 s  ClockTime = 867 s

--> FOAM Warning : 
    From Foam::IOobjectList Foam::sampledSurfaces::preCheckFields()
    in file sampledSurface/sampledSurfaces/sampledSurfaces.C at line 112
    
Cannot find registered field matching 1(kMean)
forces forces write:
    Sum of forces
        Total    : (0.494204 -0.0050103 0.33445)
        Pressure : (0.427895 -0.0043996 0.331536)
        Viscous  : (0.0663094 -0.000610698 0.00291379)
    Sum of moments
        Total    : (0.000338785 -3.40312 -0.0513103)
        Pressure : (0.000274489 -3.37672 -0.0451329)
        Viscous  : (6.42954e-05 -0.0264019 -0.00617739)
    writing force and moment files.

fieldAverage fieldAverage write:
    Calculating averages

    Writing average fields

End

Finalising parallel run
