/*---------------------------------------------------------------------------*\
| =========                 |                                                 |
| \\      /  F ield         | OpenFOAM: The Open Source CFD Toolbox           |
|  \\    /   O peration     | Version:  2406                                  |
|   \\  /    A nd           | Website:  www.openfoam.com                      |
|    \\/     M anipulation  |                                                 |
\*---------------------------------------------------------------------------*/
Build  : _630d60de3b-20240620 OPENFOAM=2406 version=v2406
Arch   : "LSB;label=32;scalar=64"
Exec   : snappyHexMesh -overwrite -parallel
Date   : Nov 21 2024
Time   : 19:07:51
Host   : MacBook-Air-de-Denis.local
PID    : 83273
I/O    : uncollated
Case   : /Users/df/Documents/3A/POLI48/OpenFoamSim/ahmedBetterShark
nProcs : 4
Hosts  :
(
    (MacBook-Air-de-Denis.local 4)
)
Pstream initialized with:
    floatTransfer      : false
    maxCommsSize       : 0
    nProcsSimpleSum    : 0
    nonBlockingExchange: 0 (tuning: 0)
    exchange algorithm : 0
    commsType          : nonBlocking
    polling iterations : 0
trapFpe: Floating point exception trapping enabled (FOAM_SIGFPE).
fileModificationChecking : Monitoring run-time modified files using timeStampMaster (fileModificationSkew 5, maxFileModificationPolls 20)
allowSystemOperations : Allowing user-supplied system call operations

// * * * * * * * * * * * * * * * * * * * * * * * * * * * * * * * * * * * * * //
Create time

Create mesh for time = 0

Read mesh in = 0 s

Overall mesh bounding box  : (-1.3 -0.25 -0.0218) (3 0.25 0.4782)
Relative tolerance         : 1e-06
Absolute matching distance : 4.35775e-06

Reading refinement surfaces.
Read refinement surfaces in = 0 s

Reading refinement shells.
Refinement level 1 for all cells inside refinementBox1
Refinement level 2 for all cells inside refinementBox2
Refinement level 3 for all cells inside refinementBox3
Read refinement shells in = 0 s

Setting refinement level of surface to be consistent with shells.
For geometry ahmedBody.stl detected 0 uncached triangles out of 932
Checked shell refinement in = 0.01 s

Reading features.
Read edgeMesh ahmedBody.eMesh
    points      : 462
    edges       : 507
    boundingBox : (0.00156791 -0.0537754 0) (0.288109 0.0537754 0.112769)

Refinement level according to distance to "ahmedBody.eMesh" (462 points, 507 edges).
    level 3 for all cells within 0 metre.
Read features in = 0 s


Determining initial surface intersections
-----------------------------------------

Edge intersection testing:
    Number of edges             : 131835
    Number of edges to retest   : 0
    Number of intersected edges : 0
Edge intersection testing:
    Number of edges             : 131835
    Number of edges to retest   : 131835
    Number of intersected edges : 151
Calculated surface intersections in = 0.03 s

Initial mesh : cells:42194  faces:131835  points:47628  unbalance:0.0100014
Cells per refinement level:
    0	42194
Setting refinement level of surface to be consistent with curvature.
Checked curvature refinement in = 0 s


Adding patches for surface regions
----------------------------------

Patch Type                Region                        
----- ----                ------                        
ahmedBody:

5     wall                ahmedBody                     

Added patches in = 0 s

Edge intersection testing:
    Number of edges             : 131835
    Number of edges to retest   : 0
    Number of intersected edges : 151
Decomposition method scotch [4]

Refinement phase
----------------

Found point (-1.001 -0.201 0.201) in cell 4330 on processor 3

Feature refinement iteration 0
------------------------------

Marked for refinement due to explicit features             : 85 cells.
Determined cells to refine in = 0.07 s
Selected for feature refinement : 85 cells (out of 42194)
Edge intersection testing:
    Number of edges             : 134052
    Number of edges to retest   : 3359
    Number of intersected edges : 675
Refined mesh in = 0.02 s
After refinement feature refinement iteration 0 : cells:42789  faces:134052  points:48710  unbalance:0.0338171
Cells per refinement level:
    0	42109
    1	680
Skipping balancing since max unbalance 0.0338171 is less than allowable 0.1

Feature refinement iteration 1
------------------------------

Marked for refinement due to explicit features             : 176 cells.
Determined cells to refine in = 0.08 s
Selected for feature refinement : 296 cells (out of 42789)
Edge intersection testing:
    Number of edges             : 141447
    Number of edges to retest   : 10848
    Number of intersected edges : 1629
Refined mesh in = 0.03 s
After refinement feature refinement iteration 1 : cells:44861  faces:141447  points:52076  unbalance:0.170817
Cells per refinement level:
    0	41989
    1	1464
    2	1408
Balancing since max unbalance 0.170817 is larger than allowable 0.1
Balanced mesh in = 0.21 s
After balancing feature refinement iteration 1 : cells:44861  faces:141447  points:52076  unbalance:0.00867123
Cells per refinement level:
    0	41989
    1	1464
    2	1408

Feature refinement iteration 2
------------------------------

Marked for refinement due to explicit features             : 400 cells.
Determined cells to refine in = 0.08 s
Selected for feature refinement : 800 cells (out of 44861)
Edge intersection testing:
    Number of edges             : 161466
    Number of edges to retest   : 29775
    Number of intersected edges : 3325
Refined mesh in = 0.06 s
After refinement feature refinement iteration 2 : cells:50461  faces:161466  points:61228  unbalance:0.331801
Cells per refinement level:
    0	41903
    1	1838
    2	3520
    3	3200
Balancing since max unbalance 0.331801 is larger than allowable 0.1
Balanced mesh in = 0.24 s
After balancing feature refinement iteration 2 : cells:50461  faces:161466  points:61228  unbalance:0.00937358
Cells per refinement level:
    0	41903
    1	1838
    2	3520
    3	3200

Feature refinement iteration 3
------------------------------

Marked for refinement due to explicit features             : 0 cells.
Determined cells to refine in = 0.08 s
Selected for feature refinement : 0 cells (out of 50461)
Stopping refining since too few cells selected.


Surface refinement iteration 0
------------------------------

Marked for refinement due to surface intersection          : 3603 cells.
Determined cells to refine in = 0 s
Selected for refinement : 4019 cells (out of 50461)
Edge intersection testing:
    Number of edges             : 254823
    Number of edges to retest   : 121595
    Number of intersected edges : 12382
Refined mesh in = 0.19 s
After refinement surface refinement iteration 0 : cells:78594  faces:254823  points:98668  unbalance:1.06962
Cells per refinement level:
    0	41802
    1	1890
    2	8008
    3	14078
    4	12816
Balancing since max unbalance 1.06962 is larger than allowable 0.1
Balanced mesh in = 0.41 s
After balancing surface refinement iteration 0 : cells:78594  faces:254823  points:98668  unbalance:0.0100008
Cells per refinement level:
    0	41802
    1	1890
    2	8008
    3	14078
    4	12816

Surface refinement iteration 1
------------------------------

Marked for refinement due to surface intersection          : 8402 cells.
Determined cells to refine in = 0.01 s
Selected for refinement : 8963 cells (out of 78594)
Edge intersection testing:
    Number of edges             : 456738
    Number of edges to retest   : 290998
    Number of intersected edges : 26164
Refined mesh in = 0.27 s
After refinement surface refinement iteration 1 : cells:141335  faces:456738  points:174847  unbalance:0.570595
Cells per refinement level:
    0	41795
    1	1620
    2	7724
    3	31476
    4	58720
Balancing since max unbalance 0.570595 is larger than allowable 0.1
Balanced mesh in = 0.67 s
After balancing surface refinement iteration 1 : cells:141335  faces:456738  points:174847  unbalance:0.0077051
Cells per refinement level:
    0	41795
    1	1620
    2	7724
    3	31476
    4	58720

Surface refinement iteration 2
------------------------------

Marked for refinement due to surface intersection          : 10422 cells.
Determined cells to refine in = 0.01 s
Selected for refinement : 11255 cells (out of 141335)
Edge intersection testing:
    Number of edges             : 707136
    Number of edges to retest   : 358949
    Number of intersected edges : 41660
Refined mesh in = 0.25 s
After refinement surface refinement iteration 2 : cells:220120  faces:707136  points:267236  unbalance:0.356624
Cells per refinement level:
    0	41794
    1	1558
    2	7038
    3	31506
    4	138224
Balancing since max unbalance 0.356624 is larger than allowable 0.1
Balanced mesh in = 0.97 s
After balancing surface refinement iteration 2 : cells:220120  faces:707136  points:267236  unbalance:0.00992186
Cells per refinement level:
    0	41794
    1	1558
    2	7038
    3	31506
    4	138224

Surface refinement iteration 3
------------------------------

Marked for refinement due to surface intersection          : 1928 cells.
Determined cells to refine in = 0.02 s
Selected for refinement : 1998 cells (out of 220120)
Edge intersection testing:
    Number of edges             : 751401
    Number of edges to retest   : 69408
    Number of intersected edges : 44688
Refined mesh in = 0.21 s
After refinement surface refinement iteration 3 : cells:234106  faces:751401  points:283359  unbalance:0.0385381
Cells per refinement level:
    0	41794
    1	1548
    2	7058
    3	30058
    4	153648
Skipping balancing since max unbalance 0.0385381 is less than allowable 0.1

Surface refinement iteration 4
------------------------------

Marked for refinement due to surface intersection          : 0 cells.
Determined cells to refine in = 0.02 s
Selected for refinement : 0 cells (out of 234106)
Stopping refining since too few cells selected.


Removing mesh beyond surface intersections
------------------------------------------

Setting cellZones according to locationsInMesh:
Location : (-1.001 -0.201 0.201)
    cellZone : none

For cellZone none found point (-1.001 -0.201 0.201) in global region 0 out of 7 regions.
--> FOAM Warning : 
    From void Foam::meshRefinement::nearestFace(const labelUList &, const bitSet &, autoPtr<mapDistribute> &, labelList &, const label) const
    in file meshRefinement/meshRefinement.C at line 515
    Did not visit some faces, e.g. face 26 at (0.187329 0.0808824 -0.0144471)
Keeping all cells containing inside points
Selected for keeping : 196350 cells.
Edge intersection testing:
    Number of edges             : 640889
    Number of edges to retest   : 43990
    Number of intersected edges : 44688

Shell refinement iteration 0
----------------------------

Marked for refinement due to distance to explicit features : 0 cells.
Marked for refinement due to refinement shells             : 12483 cells.
Determined cells to refine in = 0.23 s
Selected for internal refinement : 18570 cells (out of 196350)
Edge intersection testing:
    Number of edges             : 1037636
    Number of edges to retest   : 607052
    Number of intersected edges : 44688
Refined mesh in = 0.36 s
After refinement shell refinement iteration 0 : cells:326340  faces:1037636  points:385059  unbalance:0.238095
Cells per refinement level:
    0	35297
    1	51976
    2	11040
    3	47501
    4	180526
Balancing since max unbalance 0.238095 is larger than allowable 0.1
Balanced mesh in = 1.26 s
After balancing shell refinement iteration 0 : cells:326340  faces:1037636  points:385059  unbalance:0.00991604
Cells per refinement level:
    0	35297
    1	51976
    2	11040
    3	47501
    4	180526

Shell refinement iteration 1
----------------------------

Marked for refinement due to distance to explicit features : 0 cells.
Marked for refinement due to refinement shells             : 22016 cells.
Determined cells to refine in = 0.05 s
Selected for internal refinement : 22196 cells (out of 326340)
Edge intersection testing:
    Number of edges             : 1510604
    Number of edges to retest   : 625423
    Number of intersected edges : 44688
Refined mesh in = 0.55 s
After refinement shell refinement iteration 1 : cells:481712  faces:1510604  points:547342  unbalance:0.421904
Cells per refinement level:
    0	35297
    1	36680
    2	126688
    3	101081
    4	181966
Balancing since max unbalance 0.421904 is larger than allowable 0.1
Balanced mesh in = 1.75 s
After balancing shell refinement iteration 1 : cells:481712  faces:1510604  points:547342  unbalance:0.00999767
Cells per refinement level:
    0	35297
    1	36680
    2	126688
    3	101081
    4	181966

Shell refinement iteration 2
----------------------------

Marked for refinement due to distance to explicit features : 0 cells.
Marked for refinement due to refinement shells             : 22764 cells.
Determined cells to refine in = 0.07 s
Selected for internal refinement : 22764 cells (out of 481712)
Edge intersection testing:
    Number of edges             : 1993748
    Number of edges to retest   : 604932
    Number of intersected edges : 44688
Refined mesh in = 0.62 s
After refinement shell refinement iteration 2 : cells:641060  faces:1993748  points:711821  unbalance:0.224927
Cells per refinement level:
    0	35297
    1	36680
    2	103924
    3	283193
    4	181966
Balancing since max unbalance 0.224927 is larger than allowable 0.1
Balanced mesh in = 2.21 s
After balancing shell refinement iteration 2 : cells:641060  faces:1993748  points:711821  unbalance:0.00611487
Cells per refinement level:
    0	35297
    1	36680
    2	103924
    3	283193
    4	181966

Shell refinement iteration 3
----------------------------

Marked for refinement due to distance to explicit features : 0 cells.
Marked for refinement due to refinement shells             : 0 cells.
Determined cells to refine in = 0.11 s
Selected for internal refinement : 0 cells (out of 641060)
Stopping refining since too few cells selected.


Dangling coarse cells refinement iteration 0
--------------------------------------------

Determined cells to refine in = 0 s
Selected for refinement : 0 cells (out of 641060)
Stopping refining since too few cells selected.


Dangling coarse cells refinement iteration 0
--------------------------------------------

Determined cells to refine in = 0 s
Selected for refinement : 0 cells (out of 641060)
Stopping refining since too few cells selected.


Refinement transition refinement iteration 0
--------------------------------------------

Determined cells to refine in = 0.01 s
Selected for refinement : 0 cells (out of 641060)
Stopping refining since too few cells selected.


Splitting mesh at surface intersections
---------------------------------------

Introducing baffles for 44688 faces that are intersected by the surface.

Setting cellZones according to locationsInMesh:
Location : (-1.001 -0.201 0.201)
    cellZone : none

For cellZone none found point (-1.001 -0.201 0.201) in global region 0 out of 11 regions.
Edge intersection testing:
    Number of edges             : 2038436
    Number of edges to retest   : 325516
    Number of intersected edges : 89376
Created baffles in = 0.5 s


After introducing baffles : cells:641060  faces:2038436  points:711822  unbalance:0.00611487
Cells per refinement level:
    0	35297
    1	36680
    2	103924
    3	283193
    4	181966

Introducing baffles to block off problem cells
----------------------------------------------

markFacesOnProblemCells : marked 90822 additional internal faces to be converted into baffles.
Analyzed problem cells in = 0.33 s


Introducing baffles to delete problem cells.

Edge intersection testing:
    Number of edges             : 2128641
    Number of edges to retest   : 273838
    Number of intersected edges : 89376
Created baffles in = 0.47 s


After introducing baffles : cells:641060  faces:2128641  points:712527  unbalance:0.00611487
Cells per refinement level:
    0	35297
    1	36680
    2	103924
    3	283193
    4	181966
Setting cellZones according to locationsInMesh:
Location : (-1.001 -0.201 0.201)
    cellZone : none

For cellZone none found point (-1.001 -0.201 0.201) in global region 0 out of 45007 regions.
Edge intersection testing:
    Number of edges             : 2128641
    Number of edges to retest   : 405496
    Number of intersected edges : 89376

Remove unreachable sections of mesh
-----------------------------------

Keeping all cells containing points 1((-1.001 -0.201 0.201))
Selected for keeping : 593888 cells.
Edge intersection testing:
    Number of edges             : 1850320
    Number of edges to retest   : 0
    Number of intersected edges : 40742
Split mesh in = 0.98 s


After subsetting : cells:593888  faces:1850320  points:662795  unbalance:0.0860297
Cells per refinement level:
    0	35297
    1	36680
    2	103924
    3	283193
    4	134794

Introducing zones for interfaces
--------------------------------

Setting cellZones according to locationsInMesh:
Location : (-1.001 -0.201 0.201)
    cellZone : none

For cellZone none found point (-1.001 -0.201 0.201) in global region 0 out of 1 regions.
Setting faceZones according to neighbouring cellZones:

Edge intersection testing:
    Number of edges             : 1850320
    Number of edges to retest   : 0
    Number of intersected edges : 40742

Handling cells with snap problems
---------------------------------

Introducing baffles for 40742 faces that are intersected by the surface.

Setting cellZones according to locationsInMesh:
Location : (-1.001 -0.201 0.201)
    cellZone : none

For cellZone none found point (-1.001 -0.201 0.201) in global region 0 out of 1 regions.
Edge intersection testing:
    Number of edges             : 1850320
    Number of edges to retest   : 150752
    Number of intersected edges : 40742
Created baffles in = 0.82 s


After introducing baffles : cells:593888  faces:1850320  points:662795  unbalance:0.0860297
Cells per refinement level:
    0	35297
    1	36680
    2	103924
    3	283193
    4	134794

Introducing baffles to block off problem cells
----------------------------------------------

markFacesOnProblemCells : marked 0 additional internal faces to be converted into baffles.
Analyzed problem cells in = 0.3 s


Introducing baffles to delete problem cells.

Created baffles in = 0.04 s


After introducing baffles : cells:593888  faces:1850320  points:662795  unbalance:0.0860297
Cells per refinement level:
    0	35297
    1	36680
    2	103924
    3	283193
    4	134794
Setting cellZones according to locationsInMesh:
Location : (-1.001 -0.201 0.201)
    cellZone : none

For cellZone none found point (-1.001 -0.201 0.201) in global region 0 out of 1 regions.
Edge intersection testing:
    Number of edges             : 1850320
    Number of edges to retest   : 150752
    Number of intersected edges : 40742

Remove unreachable sections of mesh
-----------------------------------

Split mesh in = 0.47 s


After subsetting : cells:593888  faces:1850320  points:662795  unbalance:0.0860297
Cells per refinement level:
    0	35297
    1	36680
    2	103924
    3	283193
    4	134794

Merge free-standing baffles
---------------------------

freeStandingBaffles : detected 70 free-standing baffles out of 70

freeStandingBaffles : detected 0 planar (within 30 degrees) free-standing baffles out of 70

Detected free-standing baffles : 0
Merged free-standing baffles in = 0.1 s


dupNonManifoldPoints : Found : 67 non-manifold points (out of 674597)
Edge intersection testing:
    Number of edges             : 1850320
    Number of edges to retest   : 0
    Number of intersected edges : 40742
Detected unsplittable baffles : 0

Merge refined boundary faces
----------------------------

Merging 0 sets of faces.

No faces merged ...

Merging all points on surface that
- are used by only two boundary faces and
- make an angle with a cosine of more than 0.707107.

No straight edges simplified and no points removed ...

Doing final balancing
---------------------

Found 0 zoned faces to keep together.
Found 0 separated coupled faces to keep together.
Refined mesh : cells:593888  faces:1850320  points:662862  unbalance:0.00164341
Cells per refinement level:
    0	35297
    1	36680
    2	103924
    3	283193
    4	134794
Writing mesh to time constant
Wrote mesh in = 0.07 s.
Mesh refined in = 17.68 s.

Morphing phase
--------------

Duplicating 0 points on faceZones of type boundary
Snapping to features in 10 iterations ...
Constructing mesh displacer ...
Using mesh parameters 
{
    maxNonOrtho     65;
    maxBoundarySkewness 20;
    maxInternalSkewness 4;
    maxConcave      80;
    minVol          1e-13;
    minTetQuality   1e-15;
    minArea         -1;
    minTwist        0.02;
    minDeterminant  0.001;
    minFaceWeight   0.02;
    minVolRatio     0.01;
    minTriangleTwist -1;
    minEdgeLength   -1;
    nSmoothScale    4;
    errorReduction  0.75;
}


Checking initial mesh ...
Checking faces in error :
    non-orthogonality > 65  degrees                        : 0
    faces with face pyramid volume < 1e-13                 : 0
    faces with face-decomposition tet quality < 1e-15      : 0
    faces with concavity > 80  degrees                     : 0
    faces with skewness > 4   (internal) or 20  (boundary) : 0
    faces with interpolation weights (0..1)  < 0.02        : 0
    faces with volume ratio of neighbour cells < 0.01      : 0
    faces with face twist < 0.02                           : 0
    faces on cells with determinant < 0.001                : 0
Detected 0 illegal faces (concave, zero area or negative cell pyramid volume)
Checked initial mesh in = 2.85 s


Smoothing patch points ...
Smoothing iteration 0
Found 134 non-manifold point(s).

Scaling iteration 0
Moving mesh using displacement scaling : min:1  max:1
Checking faces in error :
    non-orthogonality > 65  degrees                        : 0
    faces with face pyramid volume < 1e-13                 : 0
    faces with face-decomposition tet quality < 1e-15      : 0
    faces with concavity > 80  degrees                     : 0
    faces with skewness > 4   (internal) or 20  (boundary) : 0
    faces with interpolation weights (0..1)  < 0.02        : 0
    faces with volume ratio of neighbour cells < 0.01      : 0
    faces with face twist < 0.02                           : 0
    faces on cells with determinant < 0.001                : 0
Successfully moved mesh

Smoothing iteration 1
Found 0 non-manifold point(s).

Scaling iteration 0
Moving mesh using displacement scaling : min:1  max:1
Checking faces in error :
    non-orthogonality > 65  degrees                        : 0
    faces with face pyramid volume < 1e-13                 : 0
    faces with face-decomposition tet quality < 1e-15      : 0
    faces with concavity > 80  degrees                     : 0
    faces with skewness > 4   (internal) or 20  (boundary) : 0
    faces with interpolation weights (0..1)  < 0.02        : 0
    faces with volume ratio of neighbour cells < 0.01      : 0
    faces with face twist < 0.02                           : 0
    faces on cells with determinant < 0.001                : 0
Successfully moved mesh

Smoothing iteration 2
Found 0 non-manifold point(s).

Scaling iteration 0
Moving mesh using displacement scaling : min:1  max:1
Checking faces in error :
    non-orthogonality > 65  degrees                        : 0
    faces with face pyramid volume < 1e-13                 : 0
    faces with face-decomposition tet quality < 1e-15      : 0
    faces with concavity > 80  degrees                     : 0
    faces with skewness > 4   (internal) or 20  (boundary) : 0
    faces with interpolation weights (0..1)  < 0.02        : 0
    faces with volume ratio of neighbour cells < 0.01      : 0
    faces with face twist < 0.02                           : 0
    faces on cells with determinant < 0.001                : 0
Successfully moved mesh

Patch points smoothed in = 0.91 s



Morph iteration 0
-----------------
Calculating patchDisplacement as distance to nearest surface point ...
    non-zone points : attract to nearest of all non-zone surfaces
    zone points     : attract to zone surface only

Wanted displacement : average:0.000249468 min:1.63523e-07 max:0.00126317
Calculated surface displacement in = 0.01 s


Detecting near surfaces ...
Overriding nearest with intersection of close gaps at 116 out of 41272 points.
Overriding displacement on features :
   implicit features    : false
   explicit features    : true
   multi-patch features : false

Detected 16 baffle edges out of 82066 edges.
Baffle points     : 22 of which attracted to :
    feature point : 0
    feature edge  : 22
    rest          : 0

--> FOAM Warning : 
    From Foam::treeBoundBox::treeBoundBox(const UList<point> &)
    in file meshes/treeBoundBox/treeBoundBox.C at line 70
    No bounding box for zero-sized pointField
Initially selected 1651 mesh points out of 41272 for reverse attraction.
Selected 4814 mesh points out of 41272 for reverse attraction.
Stringing feature edges : changed 121 points
Stringing feature edges : changed 1 points
Stringing feature edges : changed 0 points
Attraction:
    linear   : max:(-0.00122445 6.03684e-16 0.000310341) avg:(-5.43785e-06 2.54064e-18 -4.55754e-05)
    feature  : max:(6.71423e-05 0.00162564 -0.000539488) avg:(1.20602e-06 1.63285e-08 -1.92165e-06)
Feature analysis : total master points :40798 of which attracted to :
    feature point   : 16
    feature edge    : 1525
    nearest surface : 0
    rest            : 39257

Smoothing displacement ...
Iteration 0
Iteration 10
Iteration 20
Displacement smoothed in = 0.53 s


Moving mesh ...

Iteration 0
Moving mesh using displacement scaling : min:1  max:1
Checking faces in error :
    non-orthogonality > 65  degrees                        : 0
    faces with face pyramid volume < 1e-13                 : 0
    faces with face-decomposition tet quality < 1e-15      : 0
    faces with concavity > 80  degrees                     : 0
    faces with skewness > 4   (internal) or 20  (boundary) : 0
    faces with interpolation weights (0..1)  < 0.02        : 0
    faces with volume ratio of neighbour cells < 0.01      : 0
    faces with face twist < 0.02                           : 0
    faces on cells with determinant < 0.001                : 0
Successfully moved mesh
Moved mesh in = 0.26 s



Morph iteration 1
-----------------
Calculating patchDisplacement as distance to nearest surface point ...
    non-zone points : attract to nearest of all non-zone surfaces
    zone points     : attract to zone surface only

Wanted displacement : average:0.000228316 min:4.72502e-08 max:0.00120374
Calculated surface displacement in = 0.01 s


Detecting near surfaces ...
Overriding nearest with intersection of close gaps at 116 out of 41272 points.
Overriding displacement on features :
   implicit features    : false
   explicit features    : true
   multi-patch features : false

Detected 16 baffle edges out of 82066 edges.
Baffle points     : 22 of which attracted to :
    feature point : 0
    feature edge  : 22
    rest          : 0

--> FOAM Warning : 
    From Foam::treeBoundBox::treeBoundBox(const UList<point> &)
    in file meshes/treeBoundBox/treeBoundBox.C at line 70
    No bounding box for zero-sized pointField
Initially selected 1651 mesh points out of 41272 for reverse attraction.
Selected 4814 mesh points out of 41272 for reverse attraction.
Stringing feature edges : changed 116 points
Stringing feature edges : changed 1 points
Stringing feature edges : changed 0 points
Attraction:
    linear   : max:(-0.00116684 1.80411e-16 0.000295739) avg:(-5.27626e-06 -1.41654e-09 -4.084e-05)
    feature  : max:(6.64383e-05 -0.00160939 -0.000485539) avg:(1.08116e-06 6.98175e-09 -1.66252e-06)
Feature analysis : total master points :40798 of which attracted to :
    feature point   : 16
    feature edge    : 1525
    nearest surface : 0
    rest            : 39257

Smoothing displacement ...
Iteration 0
Iteration 10
Iteration 20
Displacement smoothed in = 0.57 s


Moving mesh ...

Iteration 0
Moving mesh using displacement scaling : min:1  max:1
Checking faces in error :
    non-orthogonality > 65  degrees                        : 0
    faces with face pyramid volume < 1e-13                 : 0
    faces with face-decomposition tet quality < 1e-15      : 0
    faces with concavity > 80  degrees                     : 0
    faces with skewness > 4   (internal) or 20  (boundary) : 0
    faces with interpolation weights (0..1)  < 0.02        : 0
    faces with volume ratio of neighbour cells < 0.01      : 0
    faces with face twist < 0.02                           : 0
    faces on cells with determinant < 0.001                : 0
Successfully moved mesh
Moved mesh in = 0.27 s



Morph iteration 2
-----------------
Calculating patchDisplacement as distance to nearest surface point ...
    non-zone points : attract to nearest of all non-zone surfaces
    zone points     : attract to zone surface only

Wanted displacement : average:0.000190231 min:1.50972e-08 max:0.00107885
Calculated surface displacement in = 0.01 s


Detecting near surfaces ...
Overriding nearest with intersection of close gaps at 116 out of 41272 points.
Overriding displacement on features :
   implicit features    : false
   explicit features    : true
   multi-patch features : false

Detected 16 baffle edges out of 82066 edges.
Baffle points     : 22 of which attracted to :
    feature point : 0
    feature edge  : 22
    rest          : 0

--> FOAM Warning : 
    From Foam::treeBoundBox::treeBoundBox(const UList<point> &)
    in file meshes/treeBoundBox/treeBoundBox.C at line 70
    No bounding box for zero-sized pointField
Initially selected 1604 mesh points out of 41272 for reverse attraction.
Selected 4673 mesh points out of 41272 for reverse attraction.
Stringing feature edges : changed 102 points
Stringing feature edges : changed 0 points
Attraction:
    linear   : max:(-0.00104578 6.17562e-16 0.000265055) avg:(-4.87127e-06 -1.90242e-09 -3.2338e-05)
    feature  : max:(6.33961e-05 0.00154503 -0.000388431) avg:(9.26565e-07 -2.28998e-09 -1.29898e-06)
Feature analysis : total master points :40798 of which attracted to :
    feature point   : 16
    feature edge    : 1523
    nearest surface : 0
    rest            : 39259

Smoothing displacement ...
Iteration 0
Iteration 10
Iteration 20
Displacement smoothed in = 0.5 s


Moving mesh ...

Iteration 0
Moving mesh using displacement scaling : min:1  max:1
Checking faces in error :
    non-orthogonality > 65  degrees                        : 0
    faces with face pyramid volume < 1e-13                 : 0
    faces with face-decomposition tet quality < 1e-15      : 0
    faces with concavity > 80  degrees                     : 0
    faces with skewness > 4   (internal) or 20  (boundary) : 0
    faces with interpolation weights (0..1)  < 0.02        : 0
    faces with volume ratio of neighbour cells < 0.01      : 0
    faces with face twist < 0.02                           : 0
    faces on cells with determinant < 0.001                : 0
Successfully moved mesh
Moved mesh in = 0.27 s



Morph iteration 3
-----------------
Calculating patchDisplacement as distance to nearest surface point ...
    non-zone points : attract to nearest of all non-zone surfaces
    zone points     : attract to zone surface only

Wanted displacement : average:0.000144033 min:1.45475e-07 max:0.00089562
Calculated surface displacement in = 0.01 s


Detecting near surfaces ...
Overriding nearest with intersection of close gaps at 116 out of 41272 points.
Overriding displacement on features :
   implicit features    : false
   explicit features    : true
   multi-patch features : false

Detected 16 baffle edges out of 82066 edges.
Baffle points     : 22 of which attracted to :
    feature point : 0
    feature edge  : 22
    rest          : 0

--> FOAM Warning : 
    From Foam::treeBoundBox::treeBoundBox(const UList<point> &)
    in file meshes/treeBoundBox/treeBoundBox.C at line 70
    No bounding box for zero-sized pointField
Initially selected 1597 mesh points out of 41272 for reverse attraction.
Selected 4649 mesh points out of 41272 for reverse attraction.
Stringing feature edges : changed 88 points
Stringing feature edges : changed 0 points
Attraction:
    linear   : max:(-0.00086817 -1.31839e-16 0.00022004) avg:(-4.14058e-06 -4.99612e-10 -2.21804e-05)
    feature  : max:(5.6683e-05 0.00140604 -0.000271902) avg:(6.80162e-07 -6.13324e-10 -7.52349e-07)
Feature analysis : total master points :40798 of which attracted to :
    feature point   : 16
    feature edge    : 1523
    nearest surface : 0
    rest            : 39259

Smoothing displacement ...
Iteration 0
Iteration 10
Iteration 20
Displacement smoothed in = 0.49 s


Moving mesh ...

Iteration 0
Moving mesh using displacement scaling : min:1  max:1
Checking faces in error :
    non-orthogonality > 65  degrees                        : 0
    faces with face pyramid volume < 1e-13                 : 0
    faces with face-decomposition tet quality < 1e-15      : 0
    faces with concavity > 80  degrees                     : 0
    faces with skewness > 4   (internal) or 20  (boundary) : 0
    faces with interpolation weights (0..1)  < 0.02        : 0
    faces with volume ratio of neighbour cells < 0.01      : 0
    faces with face twist < 0.02                           : 0
    faces on cells with determinant < 0.001                : 0
Successfully moved mesh
Moved mesh in = 0.26 s



Morph iteration 4
-----------------
Calculating patchDisplacement as distance to nearest surface point ...
    non-zone points : attract to nearest of all non-zone surfaces
    zone points     : attract to zone surface only

Wanted displacement : average:9.82487e-05 min:1.23256e-09 max:0.000667463
Calculated surface displacement in = 0.01 s


Detecting near surfaces ...
Overriding nearest with intersection of close gaps at 114 out of 41272 points.
Overriding displacement on features :
   implicit features    : false
   explicit features    : true
   multi-patch features : false

Detected 16 baffle edges out of 82066 edges.
Baffle points     : 22 of which attracted to :
    feature point : 0
    feature edge  : 22
    rest          : 0

--> FOAM Warning : 
    From Foam::treeBoundBox::treeBoundBox(const UList<point> &)
    in file meshes/treeBoundBox/treeBoundBox.C at line 70
    No bounding box for zero-sized pointField
Initially selected 1572 mesh points out of 41272 for reverse attraction.
Selected 4600 mesh points out of 41272 for reverse attraction.
Stringing feature edges : changed 71 points
Stringing feature edges : changed 0 points
Attraction:
    linear   : max:(-0.000662155 0 8.40067e-05) avg:(-3.09022e-06 1.5399e-09 -1.30953e-05)
    feature  : max:(4.44279e-05 0.00118124 -0.000163141) avg:(3.95635e-07 -4.43469e-10 -2.58212e-07)
Feature analysis : total master points :40798 of which attracted to :
    feature point   : 12
    feature edge    : 1527
    nearest surface : 0
    rest            : 39259

Smoothing displacement ...
Iteration 0
Iteration 10
Iteration 20
Displacement smoothed in = 0.47 s


Moving mesh ...

Iteration 0
Moving mesh using displacement scaling : min:1  max:1
Checking faces in error :
    non-orthogonality > 65  degrees                        : 0
    faces with face pyramid volume < 1e-13                 : 0
    faces with face-decomposition tet quality < 1e-15      : 2
    faces with concavity > 80  degrees                     : 0
    faces with skewness > 4   (internal) or 20  (boundary) : 0
    faces with interpolation weights (0..1)  < 0.02        : 0
    faces with volume ratio of neighbour cells < 0.01      : 0
    faces with face twist < 0.02                           : 0
    faces on cells with determinant < 0.001                : 0

Iteration 1
Moving mesh using displacement scaling : min:0.75  max:1
Checking faces in error :
    non-orthogonality > 65  degrees                        : 0
    faces with face pyramid volume < 1e-13                 : 0
    faces with face-decomposition tet quality < 1e-15      : 2
    faces with concavity > 80  degrees                     : 0
    faces with skewness > 4   (internal) or 20  (boundary) : 0
    faces with interpolation weights (0..1)  < 0.02        : 0
    faces with volume ratio of neighbour cells < 0.01      : 0
    faces with face twist < 0.02                           : 0
    faces on cells with determinant < 0.001                : 0

Iteration 2
Moving mesh using displacement scaling : min:0.5625  max:1
Checking faces in error :
    non-orthogonality > 65  degrees                        : 0
    faces with face pyramid volume < 1e-13                 : 0
    faces with face-decomposition tet quality < 1e-15      : 0
    faces with concavity > 80  degrees                     : 0
    faces with skewness > 4   (internal) or 20  (boundary) : 0
    faces with interpolation weights (0..1)  < 0.02        : 0
    faces with volume ratio of neighbour cells < 0.01      : 0
    faces with face twist < 0.02                           : 2
    faces on cells with determinant < 0.001                : 0

Iteration 3
Moving mesh using displacement scaling : min:0.421875  max:1
Checking faces in error :
    non-orthogonality > 65  degrees                        : 0
    faces with face pyramid volume < 1e-13                 : 0
    faces with face-decomposition tet quality < 1e-15      : 0
    faces with concavity > 80  degrees                     : 0
    faces with skewness > 4   (internal) or 20  (boundary) : 0
    faces with interpolation weights (0..1)  < 0.02        : 0
    faces with volume ratio of neighbour cells < 0.01      : 0
    faces with face twist < 0.02                           : 0
    faces on cells with determinant < 0.001                : 0
Successfully moved mesh
Moved mesh in = 0.6 s



Morph iteration 5
-----------------
Calculating patchDisplacement as distance to nearest surface point ...
    non-zone points : attract to nearest of all non-zone surfaces
    zone points     : attract to zone surface only

Wanted displacement : average:5.86063e-05 min:2.61667e-08 max:0.000430437
Calculated surface displacement in = 0.01 s


Detecting near surfaces ...
Overriding nearest with intersection of close gaps at 118 out of 41272 points.
Overriding displacement on features :
   implicit features    : false
   explicit features    : true
   multi-patch features : false

Detected 16 baffle edges out of 82066 edges.
Baffle points     : 22 of which attracted to :
    feature point : 0
    feature edge  : 22
    rest          : 0

--> FOAM Warning : 
    From Foam::treeBoundBox::treeBoundBox(const UList<point> &)
    in file meshes/treeBoundBox/treeBoundBox.C at line 70
    No bounding box for zero-sized pointField
Initially selected 1568 mesh points out of 41272 for reverse attraction.
Selected 4588 mesh points out of 41272 for reverse attraction.
Stringing feature edges : changed 51 points
Stringing feature edges : changed 0 points
Attraction:
    linear   : max:(9.06347e-05 0.000496964 -0.0001385) avg:(-1.88601e-06 1.0599e-09 -6.42565e-06)
    feature  : max:(-0.000347987 0.000945272 0.000304357) avg:(2.03955e-07 -3.26238e-10 7.70718e-08)
Feature analysis : total master points :40798 of which attracted to :
    feature point   : 12
    feature edge    : 1527
    nearest surface : 0
    rest            : 39259

Smoothing displacement ...
Iteration 0
Iteration 10
Iteration 20
Displacement smoothed in = 0.46 s


Moving mesh ...

Iteration 0
Moving mesh using displacement scaling : min:1  max:1
Checking faces in error :
    non-orthogonality > 65  degrees                        : 0
    faces with face pyramid volume < 1e-13                 : 0
    faces with face-decomposition tet quality < 1e-15      : 2
    faces with concavity > 80  degrees                     : 0
    faces with skewness > 4   (internal) or 20  (boundary) : 0
    faces with interpolation weights (0..1)  < 0.02        : 0
    faces with volume ratio of neighbour cells < 0.01      : 0
    faces with face twist < 0.02                           : 0
    faces on cells with determinant < 0.001                : 0

Iteration 1
Moving mesh using displacement scaling : min:0.75  max:1
Checking faces in error :
    non-orthogonality > 65  degrees                        : 0
    faces with face pyramid volume < 1e-13                 : 0
    faces with face-decomposition tet quality < 1e-15      : 2
    faces with concavity > 80  degrees                     : 0
    faces with skewness > 4   (internal) or 20  (boundary) : 0
    faces with interpolation weights (0..1)  < 0.02        : 0
    faces with volume ratio of neighbour cells < 0.01      : 0
    faces with face twist < 0.02                           : 0
    faces on cells with determinant < 0.001                : 0

Iteration 2
Moving mesh using displacement scaling : min:0.5625  max:1
Checking faces in error :
    non-orthogonality > 65  degrees                        : 0
    faces with face pyramid volume < 1e-13                 : 0
    faces with face-decomposition tet quality < 1e-15      : 2
    faces with concavity > 80  degrees                     : 0
    faces with skewness > 4   (internal) or 20  (boundary) : 0
    faces with interpolation weights (0..1)  < 0.02        : 0
    faces with volume ratio of neighbour cells < 0.01      : 0
    faces with face twist < 0.02                           : 0
    faces on cells with determinant < 0.001                : 0

Iteration 3
Moving mesh using displacement scaling : min:0.421875  max:1
Checking faces in error :
    non-orthogonality > 65  degrees                        : 0
    faces with face pyramid volume < 1e-13                 : 0
    faces with face-decomposition tet quality < 1e-15      : 2
    faces with concavity > 80  degrees                     : 0
    faces with skewness > 4   (internal) or 20  (boundary) : 0
    faces with interpolation weights (0..1)  < 0.02        : 0
    faces with volume ratio of neighbour cells < 0.01      : 0
    faces with face twist < 0.02                           : 0
    faces on cells with determinant < 0.001                : 0

Iteration 4
Moving mesh using displacement scaling : min:0.316406  max:1
Checking faces in error :
    non-orthogonality > 65  degrees                        : 0
    faces with face pyramid volume < 1e-13                 : 0
    faces with face-decomposition tet quality < 1e-15      : 2
    faces with concavity > 80  degrees                     : 0
    faces with skewness > 4   (internal) or 20  (boundary) : 0
    faces with interpolation weights (0..1)  < 0.02        : 0
    faces with volume ratio of neighbour cells < 0.01      : 0
    faces with face twist < 0.02                           : 0
    faces on cells with determinant < 0.001                : 0

Iteration 5
Displacement scaling for error reduction set to 0.
Moving mesh using displacement scaling : min:0.237305  max:1
Checking faces in error :
    non-orthogonality > 65  degrees                        : 0
    faces with face pyramid volume < 1e-13                 : 0
    faces with face-decomposition tet quality < 1e-15      : 2
    faces with concavity > 80  degrees                     : 0
    faces with skewness > 4   (internal) or 20  (boundary) : 0
    faces with interpolation weights (0..1)  < 0.02        : 0
    faces with volume ratio of neighbour cells < 0.01      : 0
    faces with face twist < 0.02                           : 0
    faces on cells with determinant < 0.001                : 0

Iteration 6
Moving mesh using displacement scaling : min:0  max:1
Checking faces in error :
    non-orthogonality > 65  degrees                        : 0
    faces with face pyramid volume < 1e-13                 : 0
    faces with face-decomposition tet quality < 1e-15      : 0
    faces with concavity > 80  degrees                     : 0
    faces with skewness > 4   (internal) or 20  (boundary) : 0
    faces with interpolation weights (0..1)  < 0.02        : 0
    faces with volume ratio of neighbour cells < 0.01      : 0
    faces with face twist < 0.02                           : 0
    faces on cells with determinant < 0.001                : 0
Successfully moved mesh
Moved mesh in = 0.9 s



Morph iteration 6
-----------------
Calculating patchDisplacement as distance to nearest surface point ...
    non-zone points : attract to nearest of all non-zone surfaces
    zone points     : attract to zone surface only

Wanted displacement : average:3.21891e-05 min:6.4753e-09 max:0.000233937
Calculated surface displacement in = 0.01 s


Detecting near surfaces ...
Overriding nearest with intersection of close gaps at 140 out of 41272 points.
Overriding displacement on features :
   implicit features    : false
   explicit features    : true
   multi-patch features : false

Detected 72 baffle edges out of 82066 edges.
Baffle points     : 77 of which attracted to :
    feature point : 0
    feature edge  : 77
    rest          : 0

--> FOAM Warning : 
    From Foam::treeBoundBox::treeBoundBox(const UList<point> &)
    in file meshes/treeBoundBox/treeBoundBox.C at line 70
    No bounding box for zero-sized pointField
Initially selected 1566 mesh points out of 41272 for reverse attraction.
Selected 4586 mesh points out of 41272 for reverse attraction.
Stringing feature edges : changed 41 points
Stringing feature edges : changed 0 points
Attraction:
    linear   : max:(-0.000506535 0.000219856 -0.000118268) avg:(-8.81255e-07 6.21152e-10 -2.64309e-06)
    feature  : max:(-0.000368668 -0.000830194 0.000221259) avg:(1.15163e-07 -1.78341e-10 1.71931e-07)
Feature analysis : total master points :40798 of which attracted to :
    feature point   : 12
    feature edge    : 1527
    nearest surface : 0
    rest            : 39259

Smoothing displacement ...
Iteration 0
Iteration 10
Iteration 20
Displacement smoothed in = 0.5 s


Moving mesh ...

Iteration 0
Moving mesh using displacement scaling : min:1  max:1
Checking faces in error :
    non-orthogonality > 65  degrees                        : 0
    faces with face pyramid volume < 1e-13                 : 0
    faces with face-decomposition tet quality < 1e-15      : 8
    faces with concavity > 80  degrees                     : 0
    faces with skewness > 4   (internal) or 20  (boundary) : 0
    faces with interpolation weights (0..1)  < 0.02        : 0
    faces with volume ratio of neighbour cells < 0.01      : 0
    faces with face twist < 0.02                           : 0
    faces on cells with determinant < 0.001                : 0

Iteration 1
Moving mesh using displacement scaling : min:0.75  max:1
Checking faces in error :
    non-orthogonality > 65  degrees                        : 0
    faces with face pyramid volume < 1e-13                 : 0
    faces with face-decomposition tet quality < 1e-15      : 4
    faces with concavity > 80  degrees                     : 0
    faces with skewness > 4   (internal) or 20  (boundary) : 0
    faces with interpolation weights (0..1)  < 0.02        : 0
    faces with volume ratio of neighbour cells < 0.01      : 0
    faces with face twist < 0.02                           : 0
    faces on cells with determinant < 0.001                : 0

Iteration 2
Moving mesh using displacement scaling : min:0.5625  max:1
Checking faces in error :
    non-orthogonality > 65  degrees                        : 0
    faces with face pyramid volume < 1e-13                 : 0
    faces with face-decomposition tet quality < 1e-15      : 2
    faces with concavity > 80  degrees                     : 0
    faces with skewness > 4   (internal) or 20  (boundary) : 0
    faces with interpolation weights (0..1)  < 0.02        : 0
    faces with volume ratio of neighbour cells < 0.01      : 0
    faces with face twist < 0.02                           : 0
    faces on cells with determinant < 0.001                : 0

Iteration 3
Moving mesh using displacement scaling : min:0.421875  max:1
Checking faces in error :
    non-orthogonality > 65  degrees                        : 0
    faces with face pyramid volume < 1e-13                 : 0
    faces with face-decomposition tet quality < 1e-15      : 2
    faces with concavity > 80  degrees                     : 0
    faces with skewness > 4   (internal) or 20  (boundary) : 0
    faces with interpolation weights (0..1)  < 0.02        : 0
    faces with volume ratio of neighbour cells < 0.01      : 0
    faces with face twist < 0.02                           : 0
    faces on cells with determinant < 0.001                : 0

Iteration 4
Moving mesh using displacement scaling : min:0.316406  max:1
Checking faces in error :
    non-orthogonality > 65  degrees                        : 0
    faces with face pyramid volume < 1e-13                 : 0
    faces with face-decomposition tet quality < 1e-15      : 2
    faces with concavity > 80  degrees                     : 0
    faces with skewness > 4   (internal) or 20  (boundary) : 0
    faces with interpolation weights (0..1)  < 0.02        : 0
    faces with volume ratio of neighbour cells < 0.01      : 0
    faces with face twist < 0.02                           : 0
    faces on cells with determinant < 0.001                : 0

Iteration 5
Displacement scaling for error reduction set to 0.
Moving mesh using displacement scaling : min:0.237305  max:1
Checking faces in error :
    non-orthogonality > 65  degrees                        : 0
    faces with face pyramid volume < 1e-13                 : 0
    faces with face-decomposition tet quality < 1e-15      : 2
    faces with concavity > 80  degrees                     : 0
    faces with skewness > 4   (internal) or 20  (boundary) : 0
    faces with interpolation weights (0..1)  < 0.02        : 0
    faces with volume ratio of neighbour cells < 0.01      : 0
    faces with face twist < 0.02                           : 0
    faces on cells with determinant < 0.001                : 0

Iteration 6
Moving mesh using displacement scaling : min:0  max:1
Checking faces in error :
    non-orthogonality > 65  degrees                        : 0
    faces with face pyramid volume < 1e-13                 : 0
    faces with face-decomposition tet quality < 1e-15      : 0
    faces with concavity > 80  degrees                     : 0
    faces with skewness > 4   (internal) or 20  (boundary) : 0
    faces with interpolation weights (0..1)  < 0.02        : 0
    faces with volume ratio of neighbour cells < 0.01      : 0
    faces with face twist < 0.02                           : 0
    faces on cells with determinant < 0.001                : 0
Successfully moved mesh
Moved mesh in = 0.91 s



Morph iteration 7
-----------------
Calculating patchDisplacement as distance to nearest surface point ...
    non-zone points : attract to nearest of all non-zone surfaces
    zone points     : attract to zone surface only

Wanted displacement : average:1.61201e-05 min:1.36354e-09 max:0.000155678
Calculated surface displacement in = 0.01 s


Detecting near surfaces ...
Overriding nearest with intersection of close gaps at 174 out of 41272 points.
Overriding displacement on features :
   implicit features    : false
   explicit features    : true
   multi-patch features : false

Detected 68 baffle edges out of 82066 edges.
Baffle points     : 73 of which attracted to :
    feature point : 0
    feature edge  : 73
    rest          : 0

--> FOAM Warning : 
    From Foam::treeBoundBox::treeBoundBox(const UList<point> &)
    in file meshes/treeBoundBox/treeBoundBox.C at line 70
    No bounding box for zero-sized pointField
Initially selected 1564 mesh points out of 41272 for reverse attraction.
Selected 4584 mesh points out of 41272 for reverse attraction.
Stringing feature edges : changed 21 points
Stringing feature edges : changed 0 points
Attraction:
    linear   : max:(-0.000148131 5.79036e-05 -5.30631e-05) avg:(-1.6735e-07 2.9646e-10 -9.75108e-07)
    feature  : max:(0.000349947 -0.000320988 0.000515902) avg:(7.75429e-08 -8.56886e-11 1.77675e-07)
Feature analysis : total master points :40798 of which attracted to :
    feature point   : 12
    feature edge    : 1527
    nearest surface : 0
    rest            : 39259

Smoothing displacement ...
Iteration 0
Iteration 10
Iteration 20
Displacement smoothed in = 0.47 s


Moving mesh ...

Iteration 0
Moving mesh using displacement scaling : min:1  max:1
Checking faces in error :
    non-orthogonality > 65  degrees                        : 2
    faces with face pyramid volume < 1e-13                 : 0
    faces with face-decomposition tet quality < 1e-15      : 12
    faces with concavity > 80  degrees                     : 0
    faces with skewness > 4   (internal) or 20  (boundary) : 0
    faces with interpolation weights (0..1)  < 0.02        : 0
    faces with volume ratio of neighbour cells < 0.01      : 0
    faces with face twist < 0.02                           : 0
    faces on cells with determinant < 0.001                : 0

Iteration 1
Moving mesh using displacement scaling : min:0.75  max:1
Checking faces in error :
    non-orthogonality > 65  degrees                        : 2
    faces with face pyramid volume < 1e-13                 : 0
    faces with face-decomposition tet quality < 1e-15      : 8
    faces with concavity > 80  degrees                     : 0
    faces with skewness > 4   (internal) or 20  (boundary) : 0
    faces with interpolation weights (0..1)  < 0.02        : 0
    faces with volume ratio of neighbour cells < 0.01      : 0
    faces with face twist < 0.02                           : 0
    faces on cells with determinant < 0.001                : 0

Iteration 2
Moving mesh using displacement scaling : min:0.5625  max:1
Checking faces in error :
    non-orthogonality > 65  degrees                        : 0
    faces with face pyramid volume < 1e-13                 : 0
    faces with face-decomposition tet quality < 1e-15      : 10
    faces with concavity > 80  degrees                     : 0
    faces with skewness > 4   (internal) or 20  (boundary) : 0
    faces with interpolation weights (0..1)  < 0.02        : 0
    faces with volume ratio of neighbour cells < 0.01      : 0
    faces with face twist < 0.02                           : 0
    faces on cells with determinant < 0.001                : 0

Iteration 3
Moving mesh using displacement scaling : min:0.421875  max:1
Checking faces in error :
    non-orthogonality > 65  degrees                        : 0
    faces with face pyramid volume < 1e-13                 : 0
    faces with face-decomposition tet quality < 1e-15      : 6
    faces with concavity > 80  degrees                     : 0
    faces with skewness > 4   (internal) or 20  (boundary) : 0
    faces with interpolation weights (0..1)  < 0.02        : 0
    faces with volume ratio of neighbour cells < 0.01      : 0
    faces with face twist < 0.02                           : 0
    faces on cells with determinant < 0.001                : 0

Iteration 4
Moving mesh using displacement scaling : min:0.316406  max:1
Checking faces in error :
    non-orthogonality > 65  degrees                        : 0
    faces with face pyramid volume < 1e-13                 : 0
    faces with face-decomposition tet quality < 1e-15      : 4
    faces with concavity > 80  degrees                     : 0
    faces with skewness > 4   (internal) or 20  (boundary) : 0
    faces with interpolation weights (0..1)  < 0.02        : 0
    faces with volume ratio of neighbour cells < 0.01      : 0
    faces with face twist < 0.02                           : 0
    faces on cells with determinant < 0.001                : 0

Iteration 5
Displacement scaling for error reduction set to 0.
Moving mesh using displacement scaling : min:0.237305  max:1
Checking faces in error :
    non-orthogonality > 65  degrees                        : 0
    faces with face pyramid volume < 1e-13                 : 0
    faces with face-decomposition tet quality < 1e-15      : 4
    faces with concavity > 80  degrees                     : 0
    faces with skewness > 4   (internal) or 20  (boundary) : 0
    faces with interpolation weights (0..1)  < 0.02        : 0
    faces with volume ratio of neighbour cells < 0.01      : 0
    faces with face twist < 0.02                           : 0
    faces on cells with determinant < 0.001                : 0

Iteration 6
Moving mesh using displacement scaling : min:0  max:1
Checking faces in error :
    non-orthogonality > 65  degrees                        : 0
    faces with face pyramid volume < 1e-13                 : 0
    faces with face-decomposition tet quality < 1e-15      : 0
    faces with concavity > 80  degrees                     : 0
    faces with skewness > 4   (internal) or 20  (boundary) : 0
    faces with interpolation weights (0..1)  < 0.02        : 0
    faces with volume ratio of neighbour cells < 0.01      : 0
    faces with face twist < 0.02                           : 0
    faces on cells with determinant < 0.001                : 0
Successfully moved mesh
Moved mesh in = 0.91 s



Morph iteration 8
-----------------
Calculating patchDisplacement as distance to nearest surface point ...
    non-zone points : attract to nearest of all non-zone surfaces
    zone points     : attract to zone surface only

Wanted displacement : average:7.73558e-06 min:8.17102e-10 max:0.000150131
Calculated surface displacement in = 0.01 s


Detecting near surfaces ...
Overriding nearest with intersection of close gaps at 204 out of 41272 points.
Overriding displacement on features :
   implicit features    : false
   explicit features    : true
   multi-patch features : false

Detected 68 baffle edges out of 82066 edges.
Baffle points     : 73 of which attracted to :
    feature point : 0
    feature edge  : 73
    rest          : 0

--> FOAM Warning : 
    From Foam::treeBoundBox::treeBoundBox(const UList<point> &)
    in file meshes/treeBoundBox/treeBoundBox.C at line 70
    No bounding box for zero-sized pointField
Initially selected 1564 mesh points out of 41272 for reverse attraction.
Selected 4584 mesh points out of 41272 for reverse attraction.
Stringing feature edges : changed 6 points
Stringing feature edges : changed 0 points
Attraction:
    linear   : max:(-2.77556e-17 -6.93889e-18 -0.000150131) avg:(9.28705e-08 1.07262e-10 -3.96932e-07)
    feature  : max:(0.000349947 -0.000320988 0.000515902) avg:(9.4454e-08 -2.95062e-11 1.43168e-07)
Feature analysis : total master points :40798 of which attracted to :
    feature point   : 12
    feature edge    : 1527
    nearest surface : 0
    rest            : 39259

Smoothing displacement ...
Iteration 0
Iteration 10
Iteration 20
Displacement smoothed in = 0.46 s


Moving mesh ...

Iteration 0
Moving mesh using displacement scaling : min:1  max:1
Checking faces in error :
    non-orthogonality > 65  degrees                        : 2
    faces with face pyramid volume < 1e-13                 : 0
    faces with face-decomposition tet quality < 1e-15      : 26
    faces with concavity > 80  degrees                     : 0
    faces with skewness > 4   (internal) or 20  (boundary) : 0
    faces with interpolation weights (0..1)  < 0.02        : 0
    faces with volume ratio of neighbour cells < 0.01      : 0
    faces with face twist < 0.02                           : 0
    faces on cells with determinant < 0.001                : 0

Iteration 1
Moving mesh using displacement scaling : min:0.75  max:1
Checking faces in error :
    non-orthogonality > 65  degrees                        : 2
    faces with face pyramid volume < 1e-13                 : 0
    faces with face-decomposition tet quality < 1e-15      : 12
    faces with concavity > 80  degrees                     : 0
    faces with skewness > 4   (internal) or 20  (boundary) : 0
    faces with interpolation weights (0..1)  < 0.02        : 0
    faces with volume ratio of neighbour cells < 0.01      : 0
    faces with face twist < 0.02                           : 4
    faces on cells with determinant < 0.001                : 0

Iteration 2
Moving mesh using displacement scaling : min:0.5625  max:1
Checking faces in error :
    non-orthogonality > 65  degrees                        : 2
    faces with face pyramid volume < 1e-13                 : 0
    faces with face-decomposition tet quality < 1e-15      : 10
    faces with concavity > 80  degrees                     : 0
    faces with skewness > 4   (internal) or 20  (boundary) : 0
    faces with interpolation weights (0..1)  < 0.02        : 0
    faces with volume ratio of neighbour cells < 0.01      : 0
    faces with face twist < 0.02                           : 0
    faces on cells with determinant < 0.001                : 0

Iteration 3
Moving mesh using displacement scaling : min:0.421875  max:1
Checking faces in error :
    non-orthogonality > 65  degrees                        : 2
    faces with face pyramid volume < 1e-13                 : 0
    faces with face-decomposition tet quality < 1e-15      : 10
    faces with concavity > 80  degrees                     : 0
    faces with skewness > 4   (internal) or 20  (boundary) : 0
    faces with interpolation weights (0..1)  < 0.02        : 0
    faces with volume ratio of neighbour cells < 0.01      : 0
    faces with face twist < 0.02                           : 0
    faces on cells with determinant < 0.001                : 0

Iteration 4
Moving mesh using displacement scaling : min:0.316406  max:1
Checking faces in error :
    non-orthogonality > 65  degrees                        : 0
    faces with face pyramid volume < 1e-13                 : 0
    faces with face-decomposition tet quality < 1e-15      : 6
    faces with concavity > 80  degrees                     : 0
    faces with skewness > 4   (internal) or 20  (boundary) : 0
    faces with interpolation weights (0..1)  < 0.02        : 0
    faces with volume ratio of neighbour cells < 0.01      : 0
    faces with face twist < 0.02                           : 0
    faces on cells with determinant < 0.001                : 0

Iteration 5
Displacement scaling for error reduction set to 0.
Moving mesh using displacement scaling : min:0.237305  max:1
Checking faces in error :
    non-orthogonality > 65  degrees                        : 0
    faces with face pyramid volume < 1e-13                 : 0
    faces with face-decomposition tet quality < 1e-15      : 8
    faces with concavity > 80  degrees                     : 0
    faces with skewness > 4   (internal) or 20  (boundary) : 0
    faces with interpolation weights (0..1)  < 0.02        : 0
    faces with volume ratio of neighbour cells < 0.01      : 0
    faces with face twist < 0.02                           : 0
    faces on cells with determinant < 0.001                : 0

Iteration 6
Moving mesh using displacement scaling : min:0  max:1
Checking faces in error :
    non-orthogonality > 65  degrees                        : 0
    faces with face pyramid volume < 1e-13                 : 0
    faces with face-decomposition tet quality < 1e-15      : 0
    faces with concavity > 80  degrees                     : 0
    faces with skewness > 4   (internal) or 20  (boundary) : 0
    faces with interpolation weights (0..1)  < 0.02        : 0
    faces with volume ratio of neighbour cells < 0.01      : 0
    faces with face twist < 0.02                           : 0
    faces on cells with determinant < 0.001                : 0
Successfully moved mesh
Moved mesh in = 0.91 s



Morph iteration 9
-----------------
Calculating patchDisplacement as distance to nearest surface point ...
    non-zone points : attract to nearest of all non-zone surfaces
    zone points     : attract to zone surface only

Wanted displacement : average:2.8238e-06 min:7.27213e-12 max:0.000150131
Calculated surface displacement in = 0.01 s


Detecting near surfaces ...
Overriding nearest with intersection of close gaps at 96 out of 41272 points.
Overriding displacement on features :
   implicit features    : false
   explicit features    : true
   multi-patch features : false

Detected 68 baffle edges out of 82066 edges.
Baffle points     : 73 of which attracted to :
    feature point : 0
    feature edge  : 73
    rest          : 0

--> FOAM Warning : 
    From Foam::treeBoundBox::treeBoundBox(const UList<point> &)
    in file meshes/treeBoundBox/treeBoundBox.C at line 70
    No bounding box for zero-sized pointField
Initially selected 1564 mesh points out of 41272 for reverse attraction.
Selected 4584 mesh points out of 41272 for reverse attraction.
Stringing feature edges : changed 6 points
Stringing feature edges : changed 0 points
Attraction:
    linear   : max:(-8.49742e-05 4.18386e-05 0.000132984) avg:(8.11096e-08 2.53423e-11 -1.59436e-07)
    feature  : max:(0.000349947 -0.000320988 0.000515902) avg:(4.97295e-08 -5.2428e-12 -1.61346e-08)
Feature analysis : total master points :40798 of which attracted to :
    feature point   : 12
    feature edge    : 1527
    nearest surface : 0
    rest            : 39259

Smoothing displacement ...
Iteration 0
Iteration 10
Iteration 20
Displacement smoothed in = 0.44 s


Moving mesh ...

Iteration 0
Moving mesh using displacement scaling : min:1  max:1
Checking faces in error :
    non-orthogonality > 65  degrees                        : 2
    faces with face pyramid volume < 1e-13                 : 0
    faces with face-decomposition tet quality < 1e-15      : 42
    faces with concavity > 80  degrees                     : 0
    faces with skewness > 4   (internal) or 20  (boundary) : 0
    faces with interpolation weights (0..1)  < 0.02        : 0
    faces with volume ratio of neighbour cells < 0.01      : 0
    faces with face twist < 0.02                           : 0
    faces on cells with determinant < 0.001                : 0

Iteration 1
Moving mesh using displacement scaling : min:0.75  max:1
Checking faces in error :
    non-orthogonality > 65  degrees                        : 2
    faces with face pyramid volume < 1e-13                 : 0
    faces with face-decomposition tet quality < 1e-15      : 38
    faces with concavity > 80  degrees                     : 0
    faces with skewness > 4   (internal) or 20  (boundary) : 0
    faces with interpolation weights (0..1)  < 0.02        : 0
    faces with volume ratio of neighbour cells < 0.01      : 0
    faces with face twist < 0.02                           : 0
    faces on cells with determinant < 0.001                : 0

Iteration 2
Moving mesh using displacement scaling : min:0.5625  max:1
Checking faces in error :
    non-orthogonality > 65  degrees                        : 2
    faces with face pyramid volume < 1e-13                 : 0
    faces with face-decomposition tet quality < 1e-15      : 34
    faces with concavity > 80  degrees                     : 0
    faces with skewness > 4   (internal) or 20  (boundary) : 0
    faces with interpolation weights (0..1)  < 0.02        : 0
    faces with volume ratio of neighbour cells < 0.01      : 0
    faces with face twist < 0.02                           : 0
    faces on cells with determinant < 0.001                : 0

Iteration 3
Moving mesh using displacement scaling : min:0.421875  max:1
Checking faces in error :
    non-orthogonality > 65  degrees                        : 2
    faces with face pyramid volume < 1e-13                 : 0
    faces with face-decomposition tet quality < 1e-15      : 26
    faces with concavity > 80  degrees                     : 0
    faces with skewness > 4   (internal) or 20  (boundary) : 0
    faces with interpolation weights (0..1)  < 0.02        : 0
    faces with volume ratio of neighbour cells < 0.01      : 0
    faces with face twist < 0.02                           : 4
    faces on cells with determinant < 0.001                : 0

Iteration 4
Moving mesh using displacement scaling : min:0.316406  max:1
Checking faces in error :
    non-orthogonality > 65  degrees                        : 2
    faces with face pyramid volume < 1e-13                 : 0
    faces with face-decomposition tet quality < 1e-15      : 18
    faces with concavity > 80  degrees                     : 0
    faces with skewness > 4   (internal) or 20  (boundary) : 0
    faces with interpolation weights (0..1)  < 0.02        : 0
    faces with volume ratio of neighbour cells < 0.01      : 0
    faces with face twist < 0.02                           : 0
    faces on cells with determinant < 0.001                : 0

Iteration 5
Displacement scaling for error reduction set to 0.
Moving mesh using displacement scaling : min:0.237305  max:1
Checking faces in error :
    non-orthogonality > 65  degrees                        : 2
    faces with face pyramid volume < 1e-13                 : 0
    faces with face-decomposition tet quality < 1e-15      : 10
    faces with concavity > 80  degrees                     : 0
    faces with skewness > 4   (internal) or 20  (boundary) : 0
    faces with interpolation weights (0..1)  < 0.02        : 0
    faces with volume ratio of neighbour cells < 0.01      : 0
    faces with face twist < 0.02                           : 0
    faces on cells with determinant < 0.001                : 0

Iteration 6
Moving mesh using displacement scaling : min:0  max:1
Checking faces in error :
    non-orthogonality > 65  degrees                        : 0
    faces with face pyramid volume < 1e-13                 : 0
    faces with face-decomposition tet quality < 1e-15      : 0
    faces with concavity > 80  degrees                     : 0
    faces with skewness > 4   (internal) or 20  (boundary) : 0
    faces with interpolation weights (0..1)  < 0.02        : 0
    faces with volume ratio of neighbour cells < 0.01      : 0
    faces with face twist < 0.02                           : 0
    faces on cells with determinant < 0.001                : 0
Successfully moved mesh
Moved mesh in = 1.01 s


Repatching faces according to nearest surface ...
Repatched 0 faces in = 0.05 s


Edge intersection testing:
    Number of edges             : 1850320
    Number of edges to retest   : 297923
    Number of intersected edges : 40796
Merging 4190 sets of faces.

Edge intersection testing:
    Number of edges             : 1846130
    Number of edges to retest   : 16876
    Number of intersected edges : 36606

Undo iteration 0
----------------
Checking faces in error :
    non-orthogonality > 65  degrees                        : 0
    faces with face pyramid volume < 1e-13                 : 0
    faces with face-decomposition tet quality < 1e-15      : 0
    faces with concavity > 80  degrees                     : 0
    faces with skewness > 4   (internal) or 20  (boundary) : 0
    faces with interpolation weights (0..1)  < 0.02        : 0
    faces with volume ratio of neighbour cells < 0.01      : 0
    faces with face twist < 0.02                           : 0
    faces on cells with determinant < 0.001                : 0

Merging all points on surface that
- are used by only two boundary faces and
- make an angle with a cosine of more than 0.866025.

Removing 4110 straight edge points ...

Edge intersection testing:
    Number of edges             : 1846130
    Number of edges to retest   : 16866
    Number of intersected edges : 36606

Undo iteration 0
----------------
Checking faces in error :
    non-orthogonality > 65  degrees                        : 0
    faces with face pyramid volume < 1e-13                 : 0
    faces with face-decomposition tet quality < 1e-15      : 2
    faces with concavity > 80  degrees                     : 0
    faces with skewness > 4   (internal) or 20  (boundary) : 0
    faces with interpolation weights (0..1)  < 0.02        : 0
    faces with volume ratio of neighbour cells < 0.01      : 0
    faces with face twist < 0.02                           : 0
    faces on cells with determinant < 0.001                : 0
Detected 0 error faces on boundaries that have been merged. These will be restored to their original faces.

Detected 2 error faces in mesh. Restoring neighbours of faces in error.

Edge intersection testing:
    Number of edges             : 1846130
    Number of edges to retest   : 92
    Number of intersected edges : 36606
Snapped mesh : cells:593888  faces:1846130  points:658760  unbalance:0.00164341
Cells per refinement level:
    0	35297
    1	36680
    2	103924
    3	283193
    4	134794
Writing mesh to time constant
Wrote mesh in = 0.06 s.
Mesh snapped in = 14.62 s.
Layer specification as
- final layer thickness ('finalLayerThickness')
- expansion ratio ('expansionRatio')

Shrinking and layer addition phase
----------------------------------

Using mesh parameters 
{
    maxNonOrtho     65;
    maxBoundarySkewness 20;
    maxInternalSkewness 4;
    maxConcave      80;
    minVol          1e-13;
    minTetQuality   1e-15;
    minArea         -1;
    minTwist        0.02;
    minDeterminant  0.001;
    minFaceWeight   0.02;
    minVolRatio     0.01;
    minTriangleTwist -1;
    minEdgeLength   -1;
    nSmoothScale    4;
    errorReduction  0.75;
}



Merging all faces of a cell
---------------------------
    - which are on the same patch
    - which make an angle < 150 degrees (cos:-0.866025)
    - as long as the resulting face doesn't become concave by more than 90 degrees
      (0=straight, 180=fully concave)

Merging 206 sets of faces.

Edge intersection testing:
    Number of edges             : 1845920
    Number of edges to retest   : 837
    Number of intersected edges : 36294

Undo iteration 0
----------------
Checking faces in error :
    non-orthogonality > 65  degrees                        : 0
    faces with face pyramid volume < 1e-13                 : 0
    faces with face-decomposition tet quality < 1e-15      : 6
    faces with concavity > 80  degrees                     : 102
    faces with skewness > 4   (internal) or 20  (boundary) : 0
    faces with interpolation weights (0..1)  < 0.02        : 0
    faces with volume ratio of neighbour cells < 0.01      : 0
    faces with face twist < 0.02                           : 0
    faces on cells with determinant < 0.001                : 0
Masters that need to be restored:108
Edge intersection testing:
    Number of edges             : 1846028
    Number of edges to retest   : 578
    Number of intersected edges : 36498


Undo iteration 1
----------------
Checking faces in error :
    non-orthogonality > 65  degrees                        : 0
    faces with face pyramid volume < 1e-13                 : 0
    faces with face-decomposition tet quality < 1e-15      : 0
    faces with concavity > 80  degrees                     : 0
    faces with skewness > 4   (internal) or 20  (boundary) : 0
    faces with interpolation weights (0..1)  < 0.02        : 0
    faces with volume ratio of neighbour cells < 0.01      : 0
    faces with face twist < 0.02                           : 0
    faces on cells with determinant < 0.001                : 0

Merging all points on surface that
- are used by only two boundary faces and
- make an angle with a cosine of more than -0.866025.

Removing 65 straight edge points ...

Edge intersection testing:
    Number of edges             : 1846028
    Number of edges to retest   : 303
    Number of intersected edges : 36442

Undo iteration 0
----------------
Checking faces in error :
    non-orthogonality > 65  degrees                        : 0
    faces with face pyramid volume < 1e-13                 : 0
    faces with face-decomposition tet quality < 1e-15      : 2
    faces with concavity > 80  degrees                     : 0
    faces with skewness > 4   (internal) or 20  (boundary) : 0
    faces with interpolation weights (0..1)  < 0.02        : 0
    faces with volume ratio of neighbour cells < 0.01      : 0
    faces with face twist < 0.02                           : 0
    faces on cells with determinant < 0.001                : 0
Detected 0 error faces on boundaries that have been merged. These will be restored to their original faces.

Detected 2 error faces in mesh. Restoring neighbours of faces in error.

Edge intersection testing:
    Number of edges             : 1846028
    Number of edges to retest   : 92
    Number of intersected edges : 36442

Checking mesh manifoldness ...

Checking initial mesh ...
Checking faces in error :
    non-orthogonality > 65  degrees                        : 0
    faces with face pyramid volume < 1e-13                 : 0
    faces with face-decomposition tet quality < 1e-15      : 0
    faces with concavity > 80  degrees                     : 0
    faces with skewness > 4   (internal) or 20  (boundary) : 0
    faces with interpolation weights (0..1)  < 0.02        : 0
    faces with volume ratio of neighbour cells < 0.01      : 0
    faces with face twist < 0.02                           : 0
    faces on cells with determinant < 0.001                : 0
Detected 0 illegal faces (concave, zero area or negative cell pyramid volume)

Before layer addition : cells:593888  faces:1846028  points:658693  unbalance:0.00164341
Ideal layer addition : cells:877183  unbalance:0.189635

Duplicating 0 points on faceZones of type boundary

Handling points with inconsistent layer specification ...
dupNonManifoldPoints : Found : 0 non-manifold points (out of 670584)

Handling points with inconsistent layer specification ...

Handling non-manifold points ...

Checking patch manifoldness ...
Outside of local patch is multiply connected across edges or points at 0 points.
Set displacement to zero for all 0 non-manifold points

Handling feature edges (angle < 150) ...
Set displacement to zero for points on 0 feature edges

Handling cells with warped patch faces ...
Set displacement to zero on 34 warped faces since layer would be > 0.5 of the size of the bounding box.

patch        faces    layers avg thickness[m]
                             near-wall overall
-----        -----    ------ --------- -------
frontAndBack 4964     5      0.00426   0.0317  
lowerWall    12709    5      0.00137   0.0102  
upperWall    2482     5      0.00426   0.0317  
ahmedBody    36504    5      0.000268  0.00197 


Outer iteration : 0
-------------------

Adding in total 0 inter-processor patches to handle extrusion of non-manifold processor boundaries.
Selecting externalDisplacementMeshMover displacementMedialAxis
displacementMedialAxis : Calculating distance to Medial Axis ...
fieldSmoother : Smoothing normals ...
    Iteration 0   residual 0.019381
displacementMedialAxis : Inserting points on patch inlet if angle to nearest layer patch > 30 degrees.
displacementMedialAxis : Inserting points on patch outlet if angle to nearest layer patch > 30 degrees.
fieldSmoother : Smoothing normals in interior ...
    Iteration 0   residual 0.0443474

Layer addition iteration 0
--------------------------

Determining displacement for added points according to pointNormal ...
Detected 0 points with point normal pointing through faces.
Reset displacement at 0 points to average of surrounding points.

displacementMedialAxis : Smoothing using Medial Axis ...
displacementMedialAxis : Reducing layer thickness at 7446 nodes where thickness to medial axis distance is large 
displacementMedialAxis : Removing isolated regions ...
- if partially extruded faces make angle < 75
- if exclusively surrounded by non-extruded faces
displacementMedialAxis : Number of isolated points extrusion stopped : 216
fieldSmoother : Smoothing field ...
    Iteration 0   residual 6.76694e-05
displacementMedialAxis : Moving mesh ...
displacementMedialAxis : Iteration 0
Moving mesh using displacement scaling : min:1  max:1
Checking faces in error :
    non-orthogonality > 65  degrees                        : 11
    faces with face pyramid volume < 1e-13                 : 2
    faces with face-decomposition tet quality < 1e-15      : 18
    faces with concavity > 80  degrees                     : 2
    faces with skewness > 4   (internal) or 20  (boundary) : 0
    faces with interpolation weights (0..1)  < 0.02        : 0
    faces with volume ratio of neighbour cells < 0.01      : 0
    faces with face twist < 0.02                           : 0
    faces on cells with determinant < 0.001                : 0
displacementMedialAxis : Iteration 1
Moving mesh using displacement scaling : min:0.75  max:1
Checking faces in error :
    non-orthogonality > 65  degrees                        : 2
    faces with face pyramid volume < 1e-13                 : 0
    faces with face-decomposition tet quality < 1e-15      : 4
    faces with concavity > 80  degrees                     : 2
    faces with skewness > 4   (internal) or 20  (boundary) : 0
    faces with interpolation weights (0..1)  < 0.02        : 0
    faces with volume ratio of neighbour cells < 0.01      : 0
    faces with face twist < 0.02                           : 0
    faces on cells with determinant < 0.001                : 0
displacementMedialAxis : Iteration 2
Moving mesh using displacement scaling : min:0.5625  max:1
Checking faces in error :
    non-orthogonality > 65  degrees                        : 2
    faces with face pyramid volume < 1e-13                 : 0
    faces with face-decomposition tet quality < 1e-15      : 4
    faces with concavity > 80  degrees                     : 0
    faces with skewness > 4   (internal) or 20  (boundary) : 0
    faces with interpolation weights (0..1)  < 0.02        : 0
    faces with volume ratio of neighbour cells < 0.01      : 0
    faces with face twist < 0.02                           : 0
    faces on cells with determinant < 0.001                : 0
displacementMedialAxis : Iteration 3
displacementMedialAxis : Displacement scaling for error reduction set to 0.
Moving mesh using displacement scaling : min:0.421875  max:1
Checking faces in error :
    non-orthogonality > 65  degrees                        : 2
    faces with face pyramid volume < 1e-13                 : 0
    faces with face-decomposition tet quality < 1e-15      : 4
    faces with concavity > 80  degrees                     : 0
    faces with skewness > 4   (internal) or 20  (boundary) : 0
    faces with interpolation weights (0..1)  < 0.02        : 0
    faces with volume ratio of neighbour cells < 0.01      : 0
    faces with face twist < 0.02                           : 0
    faces on cells with determinant < 0.001                : 0
displacementMedialAxis : Iteration 4
Moving mesh using displacement scaling : min:0  max:1
Checking faces in error :
    non-orthogonality > 65  degrees                        : 0
    faces with face pyramid volume < 1e-13                 : 0
    faces with face-decomposition tet quality < 1e-15      : 0
    faces with concavity > 80  degrees                     : 0
    faces with skewness > 4   (internal) or 20  (boundary) : 0
    faces with interpolation weights (0..1)  < 0.02        : 0
    faces with volume ratio of neighbour cells < 0.01      : 0
    faces with face twist < 0.02                           : 0
    faces on cells with determinant < 0.001                : 0
displacementMedialAxis : Successfully moved mesh
displacementMedialAxis : Finished moving mesh ...
truncateDisplacement : Unextruded 0 faces due to non-consecutive vertices being extruded.
truncateDisplacement : Unextruded 0 faces due to stringed edges with inconsistent extrusion.

Setting up information for layer truncation ...
Detected 0 baffles across faceZones of type internal


Checking mesh with layer ...
Checking faces in error :
    non-orthogonality > 65  degrees                        : 24
    faces with face pyramid volume < 1e-13                 : 0
    faces with face-decomposition tet quality < 1e-15      : 236
    faces with concavity > 80  degrees                     : 0
    faces with skewness > 4   (internal) or 20  (boundary) : 84
    faces with interpolation weights (0..1)  < 0.02        : 0
    faces with volume ratio of neighbour cells < 0.01      : 0
    faces with face twist < 0.02                           : 0
    faces on cells with determinant < 0.001                : 0
Detected 344 illegal faces (concave, zero area or negative cell pyramid volume)
Extruding 56283 out of 56659 faces (99.3364%). Removed extrusion at 188 faces.
Added 277968 out of 283295 cells (98.1196%).


Layer addition iteration 1
--------------------------

Determining displacement for added points according to pointNormal ...
Detected 0 points with point normal pointing through faces.
Reset displacement at 0 points to average of surrounding points.

displacementMedialAxis : Smoothing using Medial Axis ...
displacementMedialAxis : Reducing layer thickness at 7415 nodes where thickness to medial axis distance is large 
displacementMedialAxis : Removing isolated regions ...
- if partially extruded faces make angle < 75
- if exclusively surrounded by non-extruded faces
displacementMedialAxis : Number of isolated points extrusion stopped : 128
fieldSmoother : Smoothing field ...
    Iteration 0   residual 7.25315e-05
displacementMedialAxis : Moving mesh ...
displacementMedialAxis : Iteration 0
Moving mesh using displacement scaling : min:1  max:1
Checking faces in error :
    non-orthogonality > 65  degrees                        : 3
    faces with face pyramid volume < 1e-13                 : 0
    faces with face-decomposition tet quality < 1e-15      : 12
    faces with concavity > 80  degrees                     : 0
    faces with skewness > 4   (internal) or 20  (boundary) : 0
    faces with interpolation weights (0..1)  < 0.02        : 0
    faces with volume ratio of neighbour cells < 0.01      : 0
    faces with face twist < 0.02                           : 0
    faces on cells with determinant < 0.001                : 0
displacementMedialAxis : Iteration 1
Moving mesh using displacement scaling : min:0.75  max:1
Checking faces in error :
    non-orthogonality > 65  degrees                        : 0
    faces with face pyramid volume < 1e-13                 : 0
    faces with face-decomposition tet quality < 1e-15      : 10
    faces with concavity > 80  degrees                     : 0
    faces with skewness > 4   (internal) or 20  (boundary) : 0
    faces with interpolation weights (0..1)  < 0.02        : 0
    faces with volume ratio of neighbour cells < 0.01      : 0
    faces with face twist < 0.02                           : 0
    faces on cells with determinant < 0.001                : 0
displacementMedialAxis : Iteration 2
Moving mesh using displacement scaling : min:0.5625  max:1
Checking faces in error :
    non-orthogonality > 65  degrees                        : 0
    faces with face pyramid volume < 1e-13                 : 0
    faces with face-decomposition tet quality < 1e-15      : 10
    faces with concavity > 80  degrees                     : 0
    faces with skewness > 4   (internal) or 20  (boundary) : 0
    faces with interpolation weights (0..1)  < 0.02        : 0
    faces with volume ratio of neighbour cells < 0.01      : 0
    faces with face twist < 0.02                           : 0
    faces on cells with determinant < 0.001                : 0
displacementMedialAxis : Iteration 3
displacementMedialAxis : Displacement scaling for error reduction set to 0.
Moving mesh using displacement scaling : min:0.421875  max:1
Checking faces in error :
    non-orthogonality > 65  degrees                        : 0
    faces with face pyramid volume < 1e-13                 : 0
    faces with face-decomposition tet quality < 1e-15      : 10
    faces with concavity > 80  degrees                     : 0
    faces with skewness > 4   (internal) or 20  (boundary) : 0
    faces with interpolation weights (0..1)  < 0.02        : 0
    faces with volume ratio of neighbour cells < 0.01      : 0
    faces with face twist < 0.02                           : 0
    faces on cells with determinant < 0.001                : 0
displacementMedialAxis : Iteration 4
Moving mesh using displacement scaling : min:0  max:1
Checking faces in error :
    non-orthogonality > 65  degrees                        : 0
    faces with face pyramid volume < 1e-13                 : 0
    faces with face-decomposition tet quality < 1e-15      : 0
    faces with concavity > 80  degrees                     : 0
    faces with skewness > 4   (internal) or 20  (boundary) : 0
    faces with interpolation weights (0..1)  < 0.02        : 0
    faces with volume ratio of neighbour cells < 0.01      : 0
    faces with face twist < 0.02                           : 0
    faces on cells with determinant < 0.001                : 0
displacementMedialAxis : Successfully moved mesh
displacementMedialAxis : Finished moving mesh ...
truncateDisplacement : Unextruded 0 faces due to non-consecutive vertices being extruded.
truncateDisplacement : Unextruded 0 faces due to stringed edges with inconsistent extrusion.

Setting up information for layer truncation ...
Detected 0 baffles across faceZones of type internal


Checking mesh with layer ...
Checking faces in error :
    non-orthogonality > 65  degrees                        : 0
    faces with face pyramid volume < 1e-13                 : 0
    faces with face-decomposition tet quality < 1e-15      : 2
    faces with concavity > 80  degrees                     : 0
    faces with skewness > 4   (internal) or 20  (boundary) : 0
    faces with interpolation weights (0..1)  < 0.02        : 0
    faces with volume ratio of neighbour cells < 0.01      : 0
    faces with face twist < 0.02                           : 0
    faces on cells with determinant < 0.001                : 0
Detected 2 illegal faces (concave, zero area or negative cell pyramid volume)
Extruding 56224 out of 56659 faces (99.2322%). Removed extrusion at 2 faces.
Added 268481 out of 283295 cells (94.7708%).


Layer addition iteration 2
--------------------------

Determining displacement for added points according to pointNormal ...
Detected 0 points with point normal pointing through faces.
Reset displacement at 0 points to average of surrounding points.

displacementMedialAxis : Smoothing using Medial Axis ...
displacementMedialAxis : Reducing layer thickness at 7401 nodes where thickness to medial axis distance is large 
displacementMedialAxis : Removing isolated regions ...
- if partially extruded faces make angle < 75
- if exclusively surrounded by non-extruded faces
displacementMedialAxis : Number of isolated points extrusion stopped : 67
fieldSmoother : Smoothing field ...
    Iteration 0   residual 7.34893e-05
displacementMedialAxis : Moving mesh ...
displacementMedialAxis : Iteration 0
Moving mesh using displacement scaling : min:1  max:1
Checking faces in error :
    non-orthogonality > 65  degrees                        : 3
    faces with face pyramid volume < 1e-13                 : 0
    faces with face-decomposition tet quality < 1e-15      : 2
    faces with concavity > 80  degrees                     : 0
    faces with skewness > 4   (internal) or 20  (boundary) : 0
    faces with interpolation weights (0..1)  < 0.02        : 0
    faces with volume ratio of neighbour cells < 0.01      : 0
    faces with face twist < 0.02                           : 0
    faces on cells with determinant < 0.001                : 0
displacementMedialAxis : Iteration 1
Moving mesh using displacement scaling : min:0.75  max:1
Checking faces in error :
    non-orthogonality > 65  degrees                        : 0
    faces with face pyramid volume < 1e-13                 : 0
    faces with face-decomposition tet quality < 1e-15      : 0
    faces with concavity > 80  degrees                     : 0
    faces with skewness > 4   (internal) or 20  (boundary) : 0
    faces with interpolation weights (0..1)  < 0.02        : 0
    faces with volume ratio of neighbour cells < 0.01      : 0
    faces with face twist < 0.02                           : 0
    faces on cells with determinant < 0.001                : 0
displacementMedialAxis : Successfully moved mesh
displacementMedialAxis : Finished moving mesh ...
truncateDisplacement : Unextruded 0 faces due to non-consecutive vertices being extruded.
truncateDisplacement : Unextruded 0 faces due to stringed edges with inconsistent extrusion.

Setting up information for layer truncation ...
Detected 0 baffles across faceZones of type internal


Checking mesh with layer ...
Checking faces in error :
    non-orthogonality > 65  degrees                        : 0
    faces with face pyramid volume < 1e-13                 : 0
    faces with face-decomposition tet quality < 1e-15      : 4
    faces with concavity > 80  degrees                     : 0
    faces with skewness > 4   (internal) or 20  (boundary) : 0
    faces with interpolation weights (0..1)  < 0.02        : 0
    faces with volume ratio of neighbour cells < 0.01      : 0
    faces with face twist < 0.02                           : 0
    faces on cells with determinant < 0.001                : 0
Detected 4 illegal faces (concave, zero area or negative cell pyramid volume)
Extruding 56216 out of 56659 faces (99.2181%). Removed extrusion at 4 faces.
Added 267385 out of 283295 cells (94.3839%).


Layer addition iteration 3
--------------------------

Determining displacement for added points according to pointNormal ...
Detected 0 points with point normal pointing through faces.
Reset displacement at 0 points to average of surrounding points.

displacementMedialAxis : Smoothing using Medial Axis ...
displacementMedialAxis : Reducing layer thickness at 7390 nodes where thickness to medial axis distance is large 
displacementMedialAxis : Removing isolated regions ...
- if partially extruded faces make angle < 75
- if exclusively surrounded by non-extruded faces
displacementMedialAxis : Number of isolated points extrusion stopped : 26
fieldSmoother : Smoothing field ...
    Iteration 0   residual 7.3976e-05
displacementMedialAxis : Moving mesh ...
displacementMedialAxis : Iteration 0
Moving mesh using displacement scaling : min:1  max:1
Checking faces in error :
    non-orthogonality > 65  degrees                        : 3
    faces with face pyramid volume < 1e-13                 : 0
    faces with face-decomposition tet quality < 1e-15      : 2
    faces with concavity > 80  degrees                     : 0
    faces with skewness > 4   (internal) or 20  (boundary) : 0
    faces with interpolation weights (0..1)  < 0.02        : 0
    faces with volume ratio of neighbour cells < 0.01      : 0
    faces with face twist < 0.02                           : 0
    faces on cells with determinant < 0.001                : 0
displacementMedialAxis : Iteration 1
Moving mesh using displacement scaling : min:0.75  max:1
Checking faces in error :
    non-orthogonality > 65  degrees                        : 0
    faces with face pyramid volume < 1e-13                 : 0
    faces with face-decomposition tet quality < 1e-15      : 0
    faces with concavity > 80  degrees                     : 0
    faces with skewness > 4   (internal) or 20  (boundary) : 0
    faces with interpolation weights (0..1)  < 0.02        : 0
    faces with volume ratio of neighbour cells < 0.01      : 0
    faces with face twist < 0.02                           : 0
    faces on cells with determinant < 0.001                : 0
displacementMedialAxis : Successfully moved mesh
displacementMedialAxis : Finished moving mesh ...
truncateDisplacement : Unextruded 0 faces due to non-consecutive vertices being extruded.
truncateDisplacement : Unextruded 0 faces due to stringed edges with inconsistent extrusion.

Setting up information for layer truncation ...
Detected 0 baffles across faceZones of type internal


Checking mesh with layer ...
Checking faces in error :
    non-orthogonality > 65  degrees                        : 0
    faces with face pyramid volume < 1e-13                 : 0
    faces with face-decomposition tet quality < 1e-15      : 0
    faces with concavity > 80  degrees                     : 0
    faces with skewness > 4   (internal) or 20  (boundary) : 0
    faces with interpolation weights (0..1)  < 0.02        : 0
    faces with volume ratio of neighbour cells < 0.01      : 0
    faces with face twist < 0.02                           : 0
    faces on cells with determinant < 0.001                : 0
Detected 0 illegal faces (concave, zero area or negative cell pyramid volume)
Extruding 56216 out of 56659 faces (99.2181%). Removed extrusion at 0 faces.
Added 266697 out of 283295 cells (94.1411%).
Edge intersection testing:
    Number of edges             : 2649936
    Number of edges to retest   : 0
    Number of intersected edges : 202889
Mesh with layers : cells:860585  faces:2649936  points:929170  unbalance:0.169786

patch        faces        layers        overall thickness
                      target   mesh     [m]       [%]
-----        -----    -----    ----     ---       ---
frontAndBack 4964     5        4.93     0.0239    75.5    
lowerWall    12709    5        4.97     0.00807   83.2    
upperWall    2482     5        5        0.0226    71.4    
ahmedBody    36504    5        4.57     0.00185   93.5    


Doing final balancing
---------------------

Writing 266697 added cells to cellSet addedCells
Writing 210391 faces inside added layer to faceSet layerFaces

Writing fields with layer information:
    nSurfaceLayers    : actual number of layers
    thickness         : overall layer thickness
    thicknessFraction : overall layer thickness (fraction of desired thickness)

Layer mesh : cells:860585  faces:2649936  points:929170  unbalance:0.00998507
Cells per refinement level:
    0	81085
    1	43712
    2	117214
    3	317073
    4	301501
Writing mesh to time constant
Wrote mesh in = 0.09 s.
Layers added in = 14.24 s.
Checking final mesh ...
Checking faces in error :
    non-orthogonality > 65  degrees                        : 0
    faces with face pyramid volume < 1e-13                 : 0
    faces with face-decomposition tet quality < 1e-15      : 0
    faces with concavity > 80  degrees                     : 0
    faces with skewness > 4   (internal) or 20  (boundary) : 0
    faces with interpolation weights (0..1)  < 0.02        : 0
    faces with volume ratio of neighbour cells < 0.01      : 0
    faces with face twist < 0.02                           : 0
    faces on cells with determinant < 0.001                : 0
Finished meshing without any errors
Finished meshing in = 46.91 s.
End

Finalising parallel run
