/*---------------------------------------------------------------------------*\
| =========                 |                                                 |
| \\      /  F ield         | OpenFOAM: The Open Source CFD Toolbox           |
|  \\    /   O peration     | Version:  2406                                  |
|   \\  /    A nd           | Website:  www.openfoam.com                      |
|    \\/     M anipulation  |                                                 |
\*---------------------------------------------------------------------------*/
Build  : _630d60de3b-20240620 OPENFOAM=2406 version=v2406
Arch   : "LSB;label=32;scalar=64"
Exec   : decomposePar
Date   : Nov 21 2024
Time   : 10:33:08
Host   : MacBook-Air-de-Denis.local
PID    : 97675
I/O    : uncollated
Case   : /Users/df/Documents/3A/POLI48/OpenFoamSim/ahmedBody
nProcs : 1
trapFpe: Floating point exception trapping enabled (FOAM_SIGFPE).
fileModificationChecking : Monitoring run-time modified files using timeStampMaster (fileModificationSkew 5, maxFileModificationPolls 20)
allowSystemOperations : Allowing user-supplied system call operations

// * * * * * * * * * * * * * * * * * * * * * * * * * * * * * * * * * * * * * //
Create time



Decomposing mesh

Create mesh

Calculating distribution of cells
Decomposition method scotch [4] (region region0)

Finished decomposition in 0.13 s

Calculating original mesh data

Distributing cells to processors

Distributing faces to processors

Distributing points to processors

Constructing processor meshes

Processor 0
    Number of cells = 10651
    Number of points = 12270
    Number of faces shared with processor 1 = 306
    Number of processor patches = 1
    Number of processor faces = 306
    Number of boundary faces = 2788

Processor 1
    Number of cells = 10446
    Number of points = 12048
    Number of faces shared with processor 0 = 306
    Number of faces shared with processor 3 = 289
    Number of processor patches = 2
    Number of processor faces = 595
    Number of boundary faces = 2465

Processor 2
    Number of cells = 10557
    Number of points = 12168
    Number of faces shared with processor 3 = 306
    Number of processor patches = 1
    Number of processor faces = 306
    Number of boundary faces = 2772

Processor 3
    Number of cells = 10540
    Number of points = 12150
    Number of faces shared with processor 1 = 289
    Number of faces shared with processor 2 = 306
    Number of processor patches = 2
    Number of processor faces = 595
    Number of boundary faces = 2481

Number of processor faces = 901
Max number of cells = 10651 (0.971702% above average 10548.5)
Max number of processor patches = 2 (33.3333% above average 1.5)
Max number of faces between processors = 595 (32.0755% above average 450.5)

Time = 0

Processor 0: field transfer
Processor 1: field transfer
Processor 2: field transfer
Processor 3: field transfer

End

