/*---------------------------------------------------------------------------*\
| =========                 |                                                 |
| \\      /  F ield         | OpenFOAM: The Open Source CFD Toolbox           |
|  \\    /   O peration     | Version:  2406                                  |
|   \\  /    A nd           | Website:  www.openfoam.com                      |
|    \\/     M anipulation  |                                                 |
\*---------------------------------------------------------------------------*/
Build  : _630d60de3b-20240620 OPENFOAM=2406 version=v2406
Arch   : "LSB;label=32;scalar=64"
Exec   : reconstructParMesh -constant
Date   : Nov 21 2024
Time   : 17:23:44
Host   : MacBook-Air-de-Denis.local
PID    : 71168
I/O    : uncollated
Case   : /Users/df/Documents/3A/POLI48/OpenFoamSim/ahmedBetterHole
nProcs : 1
trapFpe: Floating point exception trapping enabled (FOAM_SIGFPE).
fileModificationChecking : Monitoring run-time modified files using timeStampMaster (fileModificationSkew 5, maxFileModificationPolls 20)
allowSystemOperations : Allowing user-supplied system call operations

// * * * * * * * * * * * * * * * * * * * * * * * * * * * * * * * * * * * * * //
Create time

Merge individual processor meshes back into one master mesh.
Use if the original master mesh has been deleted or the processor meshes
have been modified (topology change).
This tool will write the resulting mesh to a new time step and construct
xxxxProcAddressing files in the processor meshes so reconstructPar can be
used to regenerate the fields on the master mesh.

Not well tested & use at your own risk!

Merge assuming correct, fully matched procBoundaries.

Found 4 processor directories
    Reading database "ahmedBetterHole/processor0"
    Reading database "ahmedBetterHole/processor1"
    Reading database "ahmedBetterHole/processor2"
    Reading database "ahmedBetterHole/processor3"

Time = constant


Writing merged mesh to "constant/polyMesh"

Reconstructing addressing from processor meshes to the newly reconstructed mesh

Processor 0
Read processor mesh: "ahmedBetterHole/processor0"
Writing addressing : "ahmedBetterHole/processor0/constant/polyMesh"
    pointProcAddressing
    faceProcAddressing
    cellProcAddressing
    boundaryProcAddressing

Processor 1
Read processor mesh: "ahmedBetterHole/processor1"
Writing addressing : "ahmedBetterHole/processor1/constant/polyMesh"
    pointProcAddressing
    faceProcAddressing
    cellProcAddressing
    boundaryProcAddressing

Processor 2
Read processor mesh: "ahmedBetterHole/processor2"
Writing addressing : "ahmedBetterHole/processor2/constant/polyMesh"
    pointProcAddressing
    faceProcAddressing
    cellProcAddressing
    boundaryProcAddressing

Processor 3
Read processor mesh: "ahmedBetterHole/processor3"
Writing addressing : "ahmedBetterHole/processor3/constant/polyMesh"
    pointProcAddressing
    faceProcAddressing
    cellProcAddressing
    boundaryProcAddressing

End

