/*---------------------------------------------------------------------------*\
| =========                 |                                                 |
| \\      /  F ield         | OpenFOAM: The Open Source CFD Toolbox           |
|  \\    /   O peration     | Version:  2406                                  |
|   \\  /    A nd           | Website:  www.openfoam.com                      |
|    \\/     M anipulation  |                                                 |
\*---------------------------------------------------------------------------*/
Build  : _630d60de3b-20240620 OPENFOAM=2406 version=v2406
Arch   : "LSB;label=32;scalar=64"
Exec   : simpleFoam -parallel
Date   : Nov 21 2024
Time   : 17:23:51
Host   : MacBook-Air-de-Denis.local
PID    : 71192
I/O    : uncollated
Case   : /Users/df/Documents/3A/POLI48/OpenFoamSim/ahmedBetterHole
nProcs : 4
Hosts  :
(
    (MacBook-Air-de-Denis.local 4)
)
Pstream initialized with:
    floatTransfer      : false
    maxCommsSize       : 0
    nProcsSimpleSum    : 0
    nonBlockingExchange: 0 (tuning: 0)
    exchange algorithm : 0
    commsType          : nonBlocking
    polling iterations : 0
trapFpe: Floating point exception trapping enabled (FOAM_SIGFPE).
fileModificationChecking : Monitoring run-time modified files using timeStampMaster (fileModificationSkew 5, maxFileModificationPolls 20)
allowSystemOperations : Allowing user-supplied system call operations

// * * * * * * * * * * * * * * * * * * * * * * * * * * * * * * * * * * * * * //
Create time

Create mesh for time = 0


SIMPLE: no convergence criteria found. Calculations will run for 500 steps.

Reading field p

Reading field U

Reading/calculating face flux field phi

Selecting incompressible transport model Newtonian
Selecting turbulence model type RAS
Selecting RAS turbulence model kOmegaSST
Selecting patchDistMethod meshWave
RAS
{
    RASModel        kOmegaSST;
    turbulence      on;
    printCoeffs     on;
    alphaK1         0.85;
    alphaK2         1;
    alphaOmega1     0.5;
    alphaOmega2     0.856;
    gamma1          0.555556;
    gamma2          0.44;
    beta1           0.075;
    beta2           0.0828;
    betaStar        0.09;
    a1              0.31;
    b1              1;
    c1              10;
    F3              false;
    decayControl    false;
    kInf            0;
    omegaInf        0;
}

No MRF models present

No finite volume options present

Starting time loop

Sampled surface:
    xNormal -> vtk
        sampledCuttingPlane: xNormal : plane:(1 0 0) (0.09 0 0) offsets:(0)
    yNormal_0 -> vtk
        sampledCuttingPlane: yNormal_0 : plane:(0 1 0) (0 0 0) offsets:(0)
    zNormal_0 -> vtk
        sampledCuttingPlane: zNormal_0 : plane:(0 0 1) (0 0 0) offsets:(0)
    zNormal_0_1 -> vtk
        sampledCuttingPlane: zNormal_0_1 : plane:(0 0 1) (0 0 0.1) offsets:(0)
    zNormal_0_05 -> vtk
        sampledCuttingPlane: zNormal_0_05 : plane:(0 0 1) (0 0 0.05) offsets:(0)

forces forces:
    rho: rhoInf
    Freestream density (rhoInf) set to 1
    Not including porosity effects

fieldAverage fieldAverage:
    Restarting averaging for fields:
        U: starting averaging at time 0
        p: starting averaging at time 0

Time = 1

smoothSolver:  Solving for Ux, Initial residual = 1, Final residual = 0.0961095, No Iterations 12
smoothSolver:  Solving for Uy, Initial residual = 1, Final residual = 0.0982027, No Iterations 12
smoothSolver:  Solving for Uz, Initial residual = 1, Final residual = 0.0844204, No Iterations 13
GAMG:  Solving for p, Initial residual = 1, Final residual = 0.00622653, No Iterations 10
GAMG:  Solving for p, Initial residual = 0.0489735, Final residual = 0.000438626, No Iterations 4
GAMG:  Solving for p, Initial residual = 0.00364688, Final residual = 2.17863e-05, No Iterations 6
time step continuity errors : sum local = 0.000296176, global = -1.32007e-05, cumulative = -1.32007e-05
smoothSolver:  Solving for omega, Initial residual = 0.145677, Final residual = 0.0096461, No Iterations 3
bounding omega, min: -7434.43 max: 609752 average: 6801.18
smoothSolver:  Solving for k, Initial residual = 1, Final residual = 0.0603731, No Iterations 4
ExecutionTime = 2.3 s  ClockTime = 3 s

forces forces write:
    Sum of forces
        Total    : (108.112 0.00474867 17.9606)
        Pressure : (107.891 0.00474435 17.9619)
        Viscous  : (0.2211 4.32069e-06 -0.00128352)
    Sum of moments
        Total    : (-5.41075e-06 -180.58 0.0481125)
        Pressure : (-4.97406e-06 -180.605 0.0480679)
        Viscous  : (-4.36694e-07 0.0245382 4.45135e-05)
    writing force and moment files.

Time = 2

smoothSolver:  Solving for Ux, Initial residual = 0.386572, Final residual = 0.0376386, No Iterations 10
smoothSolver:  Solving for Uy, Initial residual = 0.787482, Final residual = 0.0624963, No Iterations 11
smoothSolver:  Solving for Uz, Initial residual = 0.607868, Final residual = 0.053512, No Iterations 11
GAMG:  Solving for p, Initial residual = 0.247496, Final residual = 0.00195955, No Iterations 6
GAMG:  Solving for p, Initial residual = 0.0127109, Final residual = 0.00010259, No Iterations 9
GAMG:  Solving for p, Initial residual = 0.0014426, Final residual = 1.2763e-05, No Iterations 12
time step continuity errors : sum local = 0.00682244, global = -1.72755e-05, cumulative = -3.04762e-05
smoothSolver:  Solving for omega, Initial residual = 0.070203, Final residual = 0.00507197, No Iterations 5
smoothSolver:  Solving for k, Initial residual = 0.780302, Final residual = 0.0550995, No Iterations 3
ExecutionTime = 4.02 s  ClockTime = 4 s

forces forces write:
    Sum of forces
        Total    : (25.1071 0.0334561 4.87629)
        Pressure : (29.9437 0.033024 4.98797)
        Viscous  : (-4.83667 0.000432124 -0.111686)
    Sum of moments
        Total    : (-0.00175803 -49.3161 0.334657)
        Pressure : (-0.00170673 -50.3131 0.330076)
        Viscous  : (-5.12999e-05 0.997037 0.00458112)
    writing force and moment files.

Time = 3

smoothSolver:  Solving for Ux, Initial residual = 0.369699, Final residual = 0.032528, No Iterations 7
smoothSolver:  Solving for Uy, Initial residual = 0.601173, Final residual = 0.0545703, No Iterations 8
smoothSolver:  Solving for Uz, Initial residual = 0.488051, Final residual = 0.0460455, No Iterations 8
GAMG:  Solving for p, Initial residual = 0.466545, Final residual = 0.00427211, No Iterations 9
GAMG:  Solving for p, Initial residual = 0.0199729, Final residual = 0.000176164, No Iterations 7
GAMG:  Solving for p, Initial residual = 0.00194518, Final residual = 1.63483e-05, No Iterations 10
time step continuity errors : sum local = 0.00317542, global = -0.000211368, cumulative = -0.000241845
smoothSolver:  Solving for omega, Initial residual = 0.0346562, Final residual = 0.00203811, No Iterations 4
smoothSolver:  Solving for k, Initial residual = 0.0869472, Final residual = 0.00649396, No Iterations 3
ExecutionTime = 5.6 s  ClockTime = 6 s

forces forces write:
    Sum of forces
        Total    : (164.755 0.473851 -4.66167)
        Pressure : (165.744 0.472734 -4.57308)
        Viscous  : (-0.989376 0.00111765 -0.088596)
    Sum of moments
        Total    : (-0.0178492 51.6951 4.80004)
        Pressure : (-0.0178547 50.826 4.78858)
        Viscous  : (5.44408e-06 0.8691 0.0114599)
    writing force and moment files.

Time = 4

smoothSolver:  Solving for Ux, Initial residual = 0.406956, Final residual = 0.0401135, No Iterations 6
smoothSolver:  Solving for Uy, Initial residual = 0.560047, Final residual = 0.04671, No Iterations 7
smoothSolver:  Solving for Uz, Initial residual = 0.46221, Final residual = 0.0356131, No Iterations 7
GAMG:  Solving for p, Initial residual = 0.0950624, Final residual = 0.000879881, No Iterations 9
GAMG:  Solving for p, Initial residual = 0.018143, Final residual = 0.000138255, No Iterations 9
GAMG:  Solving for p, Initial residual = 0.00152873, Final residual = 1.42083e-05, No Iterations 11
time step continuity errors : sum local = 0.00312754, global = 5.21997e-05, cumulative = -0.000189645
smoothSolver:  Solving for omega, Initial residual = 0.0250231, Final residual = 0.00160636, No Iterations 3
smoothSolver:  Solving for k, Initial residual = 0.0530254, Final residual = 0.00373851, No Iterations 3
ExecutionTime = 7.32 s  ClockTime = 8 s

forces forces write:
    Sum of forces
        Total    : (28.5535 0.267226 -16.218)
        Pressure : (28.8378 0.267581 -16.1952)
        Viscous  : (-0.28433 -0.00035458 -0.022813)
    Sum of moments
        Total    : (0.00207975 167.147 2.65017)
        Pressure : (0.00205358 166.929 2.65358)
        Viscous  : (2.61658e-05 0.218152 -0.00341495)
    writing force and moment files.

Time = 5

smoothSolver:  Solving for Ux, Initial residual = 0.288226, Final residual = 0.02712, No Iterations 7
smoothSolver:  Solving for Uy, Initial residual = 0.464655, Final residual = 0.0402537, No Iterations 7
smoothSolver:  Solving for Uz, Initial residual = 0.326287, Final residual = 0.0257656, No Iterations 7
GAMG:  Solving for p, Initial residual = 0.101738, Final residual = 0.000889, No Iterations 9
GAMG:  Solving for p, Initial residual = 0.0204081, Final residual = 0.00019914, No Iterations 9
GAMG:  Solving for p, Initial residual = 0.00186078, Final residual = 1.4928e-05, No Iterations 15
time step continuity errors : sum local = 0.00378474, global = 6.60131e-05, cumulative = -0.000123632
smoothSolver:  Solving for omega, Initial residual = 0.0181154, Final residual = 0.00118366, No Iterations 3
smoothSolver:  Solving for k, Initial residual = 0.0489864, Final residual = 0.00375336, No Iterations 3
ExecutionTime = 9.15 s  ClockTime = 10 s

forces forces write:
    Sum of forces
        Total    : (3.76053 0.120286 -3.91615)
        Pressure : (3.85332 0.120136 -3.92425)
        Viscous  : (-0.0927872 0.0001498 0.00809613)
    Sum of moments
        Total    : (0.00818431 40.8907 1.13648)
        Pressure : (0.00817648 40.9837 1.13465)
        Viscous  : (7.82543e-06 -0.093025 0.00183181)
    writing force and moment files.

Time = 6

smoothSolver:  Solving for Ux, Initial residual = 0.238024, Final residual = 0.0218113, No Iterations 7
smoothSolver:  Solving for Uy, Initial residual = 0.416432, Final residual = 0.0304797, No Iterations 7
smoothSolver:  Solving for Uz, Initial residual = 0.283352, Final residual = 0.0221966, No Iterations 7
GAMG:  Solving for p, Initial residual = 0.122498, Final residual = 0.00110663, No Iterations 9
GAMG:  Solving for p, Initial residual = 0.0199408, Final residual = 0.000195462, No Iterations 11
GAMG:  Solving for p, Initial residual = 0.0020041, Final residual = 1.77305e-05, No Iterations 17
time step continuity errors : sum local = 0.00471426, global = 7.19222e-05, cumulative = -5.17096e-05
smoothSolver:  Solving for omega, Initial residual = 0.0154963, Final residual = 0.000971439, No Iterations 3
smoothSolver:  Solving for k, Initial residual = 0.0553465, Final residual = 0.00391679, No Iterations 3
ExecutionTime = 11.14 s  ClockTime = 12 s

forces forces write:
    Sum of forces
        Total    : (5.36827 0.238935 6.55055)
        Pressure : (5.35144 0.237537 6.52981)
        Viscous  : (0.0168297 0.00139786 0.0207391)
    Sum of moments
        Total    : (-0.00248206 -66.2454 2.35371)
        Pressure : (-0.0024504 -66.0267 2.33931)
        Viscous  : (-3.16647e-05 -0.218727 0.0143985)
    writing force and moment files.

Time = 7

smoothSolver:  Solving for Ux, Initial residual = 0.227293, Final residual = 0.0209759, No Iterations 7
smoothSolver:  Solving for Uy, Initial residual = 0.384843, Final residual = 0.0292526, No Iterations 7
smoothSolver:  Solving for Uz, Initial residual = 0.25821, Final residual = 0.0224109, No Iterations 7
GAMG:  Solving for p, Initial residual = 0.126364, Final residual = 0.000923348, No Iterations 9
GAMG:  Solving for p, Initial residual = 0.0171276, Final residual = 0.000138571, No Iterations 10
GAMG:  Solving for p, Initial residual = 0.00160364, Final residual = 1.36201e-05, No Iterations 15
time step continuity errors : sum local = 0.00362254, global = 6.24939e-05, cumulative = 1.07842e-05
smoothSolver:  Solving for omega, Initial residual = 0.014685, Final residual = 0.00087866, No Iterations 3
smoothSolver:  Solving for k, Initial residual = 0.0623229, Final residual = 0.00415023, No Iterations 3
ExecutionTime = 13.04 s  ClockTime = 14 s

forces forces write:
    Sum of forces
        Total    : (7.21305 0.200189 10.3729)
        Pressure : (7.08547 0.199331 10.3306)
        Viscous  : (0.127577 0.000857993 0.0423579)
    Sum of moments
        Total    : (-0.00717245 -105.502 1.98156)
        Pressure : (-0.0071567 -105.066 1.97222)
        Viscous  : (-1.57582e-05 -0.435883 0.00934396)
    writing force and moment files.

Time = 8

smoothSolver:  Solving for Ux, Initial residual = 0.226642, Final residual = 0.0217859, No Iterations 7
smoothSolver:  Solving for Uy, Initial residual = 0.378954, Final residual = 0.0304553, No Iterations 7
smoothSolver:  Solving for Uz, Initial residual = 0.249126, Final residual = 0.02123, No Iterations 7
GAMG:  Solving for p, Initial residual = 0.121976, Final residual = 0.000930687, No Iterations 9
GAMG:  Solving for p, Initial residual = 0.0161386, Final residual = 0.00015082, No Iterations 9
GAMG:  Solving for p, Initial residual = 0.00138493, Final residual = 1.18723e-05, No Iterations 15
time step continuity errors : sum local = 0.00313425, global = 7.59463e-06, cumulative = 1.83789e-05
smoothSolver:  Solving for omega, Initial residual = 0.0141636, Final residual = 0.000807444, No Iterations 3
smoothSolver:  Solving for k, Initial residual = 0.0674051, Final residual = 0.00436626, No Iterations 3
ExecutionTime = 14.8 s  ClockTime = 16 s

forces forces write:
    Sum of forces
        Total    : (7.24659 0.142076 7.68683)
        Pressure : (7.07843 0.141022 7.63303)
        Viscous  : (0.168158 0.00105437 0.053794)
    Sum of moments
        Total    : (-0.00621336 -78.0767 1.41165)
        Pressure : (-0.00617502 -77.5261 1.40027)
        Viscous  : (-3.83347e-05 -0.550581 0.0113808)
    writing force and moment files.

Time = 9

smoothSolver:  Solving for Ux, Initial residual = 0.224053, Final residual = 0.0212264, No Iterations 7
smoothSolver:  Solving for Uy, Initial residual = 0.378821, Final residual = 0.028718, No Iterations 7
smoothSolver:  Solving for Uz, Initial residual = 0.243652, Final residual = 0.0198116, No Iterations 7
GAMG:  Solving for p, Initial residual = 0.125366, Final residual = 0.00103703, No Iterations 9
GAMG:  Solving for p, Initial residual = 0.0151058, Final residual = 0.00012998, No Iterations 11
GAMG:  Solving for p, Initial residual = 0.0013668, Final residual = 1.3331e-05, No Iterations 16
time step continuity errors : sum local = 0.00349332, global = -3.20972e-05, cumulative = -1.37183e-05
smoothSolver:  Solving for omega, Initial residual = 0.0131141, Final residual = 0.000710462, No Iterations 3
smoothSolver:  Solving for k, Initial residual = 0.0672237, Final residual = 0.00411292, No Iterations 3
ExecutionTime = 16.75 s  ClockTime = 18 s

forces forces write:
    Sum of forces
        Total    : (5.75466 0.0999766 3.95215)
        Pressure : (5.55053 0.0996962 3.91054)
        Viscous  : (0.204128 0.000280434 0.0416056)
    Sum of moments
        Total    : (-0.0048626 -39.9119 1.00247)
        Pressure : (-0.00473822 -39.4861 0.998775)
        Viscous  : (-0.00012438 -0.425867 0.0036969)
    writing force and moment files.

Time = 10

smoothSolver:  Solving for Ux, Initial residual = 0.213872, Final residual = 0.0198949, No Iterations 7
smoothSolver:  Solving for Uy, Initial residual = 0.369354, Final residual = 0.0358441, No Iterations 6
smoothSolver:  Solving for Uz, Initial residual = 0.243378, Final residual = 0.0194689, No Iterations 7
GAMG:  Solving for p, Initial residual = 0.125539, Final residual = 0.00108263, No Iterations 9
GAMG:  Solving for p, Initial residual = 0.014979, Final residual = 0.000133982, No Iterations 12
GAMG:  Solving for p, Initial residual = 0.00147654, Final residual = 1.45951e-05, No Iterations 17
time step continuity errors : sum local = 0.00386512, global = -3.58898e-05, cumulative = -4.96081e-05
smoothSolver:  Solving for omega, Initial residual = 0.0124611, Final residual = 0.000701328, No Iterations 3
smoothSolver:  Solving for k, Initial residual = 0.0654995, Final residual = 0.00399782, No Iterations 3
ExecutionTime = 18.68 s  ClockTime = 20 s

forces forces write:
    Sum of forces
        Total    : (3.57813 0.0171363 -0.349545)
        Pressure : (3.40676 0.0182473 -0.362804)
        Viscous  : (0.171374 -0.00111096 0.0132595)
    Sum of moments
        Total    : (-0.0040086 4.02539 0.164289)
        Pressure : (-0.00393895 4.16234 0.175)
        Viscous  : (-6.96511e-05 -0.13695 -0.0107113)
    writing force and moment files.

Time = 11

smoothSolver:  Solving for Ux, Initial residual = 0.199354, Final residual = 0.0181801, No Iterations 7
smoothSolver:  Solving for Uy, Initial residual = 0.348868, Final residual = 0.0340355, No Iterations 6
smoothSolver:  Solving for Uz, Initial residual = 0.241031, Final residual = 0.0191483, No Iterations 7
GAMG:  Solving for p, Initial residual = 0.117264, Final residual = 0.00102359, No Iterations 9
GAMG:  Solving for p, Initial residual = 0.0132683, Final residual = 0.000115917, No Iterations 13
GAMG:  Solving for p, Initial residual = 0.00139157, Final residual = 1.18314e-05, No Iterations 18
time step continuity errors : sum local = 0.00324582, global = -3.04177e-05, cumulative = -8.00258e-05
smoothSolver:  Solving for omega, Initial residual = 0.0114543, Final residual = 0.000651667, No Iterations 3
smoothSolver:  Solving for k, Initial residual = 0.0628339, Final residual = 0.00384632, No Iterations 3
ExecutionTime = 20.78 s  ClockTime = 22 s

forces forces write:
    Sum of forces
        Total    : (2.35431 -0.0721727 -3.3179)
        Pressure : (2.19376 -0.0700059 -3.32167)
        Viscous  : (0.160552 -0.00216682 0.00376786)
    Sum of moments
        Total    : (-0.00295451 34.291 -0.738621)
        Pressure : (-0.00289984 34.3308 -0.717068)
        Viscous  : (-5.46744e-05 -0.0398005 -0.0215526)
    writing force and moment files.

Time = 12

smoothSolver:  Solving for Ux, Initial residual = 0.179441, Final residual = 0.0159648, No Iterations 7
smoothSolver:  Solving for Uy, Initial residual = 0.333326, Final residual = 0.0326398, No Iterations 6
smoothSolver:  Solving for Uz, Initial residual = 0.233705, Final residual = 0.0181806, No Iterations 7
GAMG:  Solving for p, Initial residual = 0.111219, Final residual = 0.00091496, No Iterations 9
GAMG:  Solving for p, Initial residual = 0.0118852, Final residual = 0.00011212, No Iterations 13
GAMG:  Solving for p, Initial residual = 0.00128802, Final residual = 1.17456e-05, No Iterations 18
time step continuity errors : sum local = 0.00321544, global = -2.95636e-05, cumulative = -0.000109589
smoothSolver:  Solving for omega, Initial residual = 0.0105243, Final residual = 0.0005972, No Iterations 3
smoothSolver:  Solving for k, Initial residual = 0.061345, Final residual = 0.00361189, No Iterations 3
ExecutionTime = 22.88 s  ClockTime = 24 s

forces forces write:
    Sum of forces
        Total    : (1.42162 -0.144105 -5.53631)
        Pressure : (1.31099 -0.142551 -5.52931)
        Viscous  : (0.110628 -0.0015545 -0.00700336)
    Sum of moments
        Total    : (-0.00236139 56.8667 -1.46352)
        Pressure : (-0.00236395 56.7966 -1.4482)
        Viscous  : (2.56543e-06 0.0701247 -0.0153213)
    writing force and moment files.

Time = 13

smoothSolver:  Solving for Ux, Initial residual = 0.160407, Final residual = 0.0143616, No Iterations 7
smoothSolver:  Solving for Uy, Initial residual = 0.317718, Final residual = 0.0315571, No Iterations 6
smoothSolver:  Solving for Uz, Initial residual = 0.220102, Final residual = 0.0169573, No Iterations 7
GAMG:  Solving for p, Initial residual = 0.103301, Final residual = 0.000848587, No Iterations 9
GAMG:  Solving for p, Initial residual = 0.0104877, Final residual = 0.000104294, No Iterations 13
GAMG:  Solving for p, Initial residual = 0.00113512, Final residual = 1.08128e-05, No Iterations 18
time step continuity errors : sum local = 0.00295278, global = -2.80945e-05, cumulative = -0.000137684
smoothSolver:  Solving for omega, Initial residual = 0.00961606, Final residual = 0.000538416, No Iterations 3
smoothSolver:  Solving for k, Initial residual = 0.0591622, Final residual = 0.00335749, No Iterations 3
ExecutionTime = 24.86 s  ClockTime = 26 s

forces forces write:
    Sum of forces
        Total    : (1.04685 -0.250291 -6.39339)
        Pressure : (0.948886 -0.250131 -6.3837)
        Viscous  : (0.097969 -0.000159636 -0.00969424)
    Sum of moments
        Total    : (0.00277718 65.513 -2.53505)
        Pressure : (0.0027735 65.4148 -2.53401)
        Viscous  : (3.68766e-06 0.0982227 -0.00103869)
    writing force and moment files.

Time = 14

smoothSolver:  Solving for Ux, Initial residual = 0.144595, Final residual = 0.0131384, No Iterations 7
smoothSolver:  Solving for Uy, Initial residual = 0.301275, Final residual = 0.0229263, No Iterations 7
smoothSolver:  Solving for Uz, Initial residual = 0.202083, Final residual = 0.01564, No Iterations 7
GAMG:  Solving for p, Initial residual = 0.0952474, Final residual = 0.000797401, No Iterations 9
GAMG:  Solving for p, Initial residual = 0.00934493, Final residual = 9.32462e-05, No Iterations 13
GAMG:  Solving for p, Initial residual = 0.000978382, Final residual = 8.80128e-06, No Iterations 18
time step continuity errors : sum local = 0.00235385, global = -2.31311e-05, cumulative = -0.000160815
smoothSolver:  Solving for omega, Initial residual = 0.0088324, Final residual = 0.000495908, No Iterations 3
smoothSolver:  Solving for k, Initial residual = 0.0557029, Final residual = 0.00302045, No Iterations 3
ExecutionTime = 26.94 s  ClockTime = 28 s

forces forces write:
    Sum of forces
        Total    : (0.67632 -0.336821 -6.21577)
        Pressure : (0.601933 -0.337842 -6.20402)
        Viscous  : (0.0743869 0.00102074 -0.0117485)
    Sum of moments
        Total    : (0.00741401 63.6022 -3.40731)
        Pressure : (0.00736006 63.4824 -3.41849)
        Viscous  : (5.39465e-05 0.119758 0.011178)
    writing force and moment files.

Time = 15

smoothSolver:  Solving for Ux, Initial residual = 0.131112, Final residual = 0.0121305, No Iterations 7
smoothSolver:  Solving for Uy, Initial residual = 0.284891, Final residual = 0.0225678, No Iterations 7
smoothSolver:  Solving for Uz, Initial residual = 0.1832, Final residual = 0.0146753, No Iterations 7
GAMG:  Solving for p, Initial residual = 0.0916631, Final residual = 0.000707375, No Iterations 9
GAMG:  Solving for p, Initial residual = 0.00856064, Final residual = 8.53308e-05, No Iterations 12
GAMG:  Solving for p, Initial residual = 0.000843202, Final residual = 7.81379e-06, No Iterations 17
time step continuity errors : sum local = 0.00206108, global = -2.05119e-05, cumulative = -0.000181327
smoothSolver:  Solving for omega, Initial residual = 0.00828898, Final residual = 0.000460716, No Iterations 3
smoothSolver:  Solving for k, Initial residual = 0.0528897, Final residual = 0.00272972, No Iterations 3
ExecutionTime = 28.89 s  ClockTime = 30 s

forces forces write:
    Sum of forces
        Total    : (0.656167 -0.383952 -5.54997)
        Pressure : (0.583823 -0.384651 -5.53331)
        Viscous  : (0.0723444 0.000699174 -0.0166672)
    Sum of moments
        Total    : (0.0109827 56.7163 -3.88035)
        Pressure : (0.0109337 56.5455 -3.8885)
        Viscous  : (4.89622e-05 0.170772 0.00814976)
    writing force and moment files.

Time = 16

smoothSolver:  Solving for Ux, Initial residual = 0.119028, Final residual = 0.0110191, No Iterations 7
smoothSolver:  Solving for Uy, Initial residual = 0.272847, Final residual = 0.0224678, No Iterations 7
smoothSolver:  Solving for Uz, Initial residual = 0.166201, Final residual = 0.0136181, No Iterations 7
GAMG:  Solving for p, Initial residual = 0.088962, Final residual = 0.000816293, No Iterations 8
GAMG:  Solving for p, Initial residual = 0.00837087, Final residual = 7.92142e-05, No Iterations 12
GAMG:  Solving for p, Initial residual = 0.000808674, Final residual = 7.77726e-06, No Iterations 16
time step continuity errors : sum local = 0.002022, global = -2.80068e-05, cumulative = -0.000209334
smoothSolver:  Solving for omega, Initial residual = 0.00760833, Final residual = 0.000426726, No Iterations 3
smoothSolver:  Solving for k, Initial residual = 0.0497596, Final residual = 0.00243382, No Iterations 3
ExecutionTime = 30.86 s  ClockTime = 32 s

forces forces write:
    Sum of forces
        Total    : (0.674538 -0.425436 -4.77854)
        Pressure : (0.614513 -0.427562 -4.75962)
        Viscous  : (0.0600243 0.00212624 -0.0189242)
    Sum of moments
        Total    : (0.0151773 48.7524 -4.3069)
        Pressure : (0.0151043 48.5589 -4.32943)
        Viscous  : (7.29995e-05 0.193523 0.0225292)
    writing force and moment files.

Time = 17

smoothSolver:  Solving for Ux, Initial residual = 0.109105, Final residual = 0.00989132, No Iterations 7
smoothSolver:  Solving for Uy, Initial residual = 0.262252, Final residual = 0.0220509, No Iterations 7
smoothSolver:  Solving for Uz, Initial residual = 0.153457, Final residual = 0.0127084, No Iterations 7
GAMG:  Solving for p, Initial residual = 0.0872602, Final residual = 0.000827169, No Iterations 8
GAMG:  Solving for p, Initial residual = 0.00820208, Final residual = 6.84104e-05, No Iterations 13
GAMG:  Solving for p, Initial residual = 0.000815135, Final residual = 7.91742e-06, No Iterations 16
time step continuity errors : sum local = 0.00200833, global = 1.65542e-05, cumulative = -0.000192779
smoothSolver:  Solving for omega, Initial residual = 0.00702569, Final residual = 0.000389126, No Iterations 3
smoothSolver:  Solving for k, Initial residual = 0.0471163, Final residual = 0.00224393, No Iterations 3
ExecutionTime = 32.79 s  ClockTime = 34 s

forces forces write:
    Sum of forces
        Total    : (0.743874 -0.420953 -4.08635)
        Pressure : (0.691253 -0.423691 -4.06742)
        Viscous  : (0.052621 0.00273818 -0.0189251)
    Sum of moments
        Total    : (0.0175453 41.5878 -4.26748)
        Pressure : (0.0175189 41.3943 -4.29606)
        Viscous  : (2.63664e-05 0.1935 0.0285835)
    writing force and moment files.

Time = 18

smoothSolver:  Solving for Ux, Initial residual = 0.100678, Final residual = 0.00899399, No Iterations 7
smoothSolver:  Solving for Uy, Initial residual = 0.254865, Final residual = 0.0209979, No Iterations 7
smoothSolver:  Solving for Uz, Initial residual = 0.145924, Final residual = 0.0119558, No Iterations 7
GAMG:  Solving for p, Initial residual = 0.0851132, Final residual = 0.000730995, No Iterations 9
GAMG:  Solving for p, Initial residual = 0.0079788, Final residual = 6.65831e-05, No Iterations 14
GAMG:  Solving for p, Initial residual = 0.000842747, Final residual = 8.04592e-06, No Iterations 17
time step continuity errors : sum local = 0.00198202, global = 1.58962e-05, cumulative = -0.000176883
smoothSolver:  Solving for omega, Initial residual = 0.00639729, Final residual = 0.00035743, No Iterations 3
smoothSolver:  Solving for k, Initial residual = 0.0440988, Final residual = 0.00208879, No Iterations 3
ExecutionTime = 34.97 s  ClockTime = 36 s

forces forces write:
    Sum of forces
        Total    : (0.711349 -0.411116 -3.61635)
        Pressure : (0.671111 -0.413417 -3.60022)
        Viscous  : (0.0402378 0.00230026 -0.0161319)
    Sum of moments
        Total    : (0.0191694 36.6814 -4.17314)
        Pressure : (0.0191213 36.5166 -4.19727)
        Viscous  : (4.81219e-05 0.164784 0.0241275)
    writing force and moment files.

Time = 19

smoothSolver:  Solving for Ux, Initial residual = 0.0939357, Final residual = 0.00837232, No Iterations 7
smoothSolver:  Solving for Uy, Initial residual = 0.246864, Final residual = 0.0194337, No Iterations 7
smoothSolver:  Solving for Uz, Initial residual = 0.141735, Final residual = 0.0117116, No Iterations 7
GAMG:  Solving for p, Initial residual = 0.0820011, Final residual = 0.000779571, No Iterations 9
GAMG:  Solving for p, Initial residual = 0.00771376, Final residual = 6.48828e-05, No Iterations 15
GAMG:  Solving for p, Initial residual = 0.000866241, Final residual = 7.73047e-06, No Iterations 18
time step continuity errors : sum local = 0.00185, global = 1.46428e-05, cumulative = -0.00016224
smoothSolver:  Solving for omega, Initial residual = 0.00576246, Final residual = 0.000323267, No Iterations 3
smoothSolver:  Solving for k, Initial residual = 0.0415294, Final residual = 0.00199904, No Iterations 3
ExecutionTime = 37.15 s  ClockTime = 39 s

forces forces write:
    Sum of forces
        Total    : (0.647353 -0.420817 -3.25617)
        Pressure : (0.613891 -0.422742 -3.24201)
        Viscous  : (0.033462 0.00192561 -0.0141605)
    Sum of moments
        Total    : (0.0203504 32.9105 -4.27312)
        Pressure : (0.020324 32.7657 -4.29337)
        Viscous  : (2.6354e-05 0.144777 0.0202533)
    writing force and moment files.

Time = 20

smoothSolver:  Solving for Ux, Initial residual = 0.0882565, Final residual = 0.00789873, No Iterations 7
smoothSolver:  Solving for Uy, Initial residual = 0.235427, Final residual = 0.0179736, No Iterations 7
smoothSolver:  Solving for Uz, Initial residual = 0.13845, Final residual = 0.0115396, No Iterations 7
GAMG:  Solving for p, Initial residual = 0.0777555, Final residual = 0.000761745, No Iterations 9
GAMG:  Solving for p, Initial residual = 0.00735946, Final residual = 6.67407e-05, No Iterations 15
GAMG:  Solving for p, Initial residual = 0.000856605, Final residual = 8.19272e-06, No Iterations 18
time step continuity errors : sum local = 0.00190165, global = 1.49426e-05, cumulative = -0.000147298
smoothSolver:  Solving for omega, Initial residual = 0.0052976, Final residual = 0.000298666, No Iterations 3
smoothSolver:  Solving for k, Initial residual = 0.0395637, Final residual = 0.00193624, No Iterations 3
ExecutionTime = 39.4 s  ClockTime = 41 s

forces forces write:
    Sum of forces
        Total    : (0.45734 -0.402386 -2.83279)
        Pressure : (0.429357 -0.403933 -2.82042)
        Viscous  : (0.0279823 0.00154726 -0.0123694)
    Sum of moments
        Total    : (0.0194969 28.5449 -4.08493)
        Pressure : (0.0194863 28.4184 -4.10142)
        Viscous  : (1.06279e-05 0.12652 0.016492)
    writing force and moment files.

Time = 21

smoothSolver:  Solving for Ux, Initial residual = 0.0840985, Final residual = 0.00736543, No Iterations 7
smoothSolver:  Solving for Uy, Initial residual = 0.22528, Final residual = 0.0168282, No Iterations 7
smoothSolver:  Solving for Uz, Initial residual = 0.135183, Final residual = 0.0112754, No Iterations 7
GAMG:  Solving for p, Initial residual = 0.0745999, Final residual = 0.000726724, No Iterations 9
GAMG:  Solving for p, Initial residual = 0.00703086, Final residual = 6.09136e-05, No Iterations 15
GAMG:  Solving for p, Initial residual = 0.000811514, Final residual = 7.40962e-06, No Iterations 18
time step continuity errors : sum local = 0.00166925, global = 1.26946e-05, cumulative = -0.000134603
smoothSolver:  Solving for omega, Initial residual = 0.0049638, Final residual = 0.000279656, No Iterations 3
smoothSolver:  Solving for k, Initial residual = 0.0386523, Final residual = 0.00191808, No Iterations 3
ExecutionTime = 41.98 s  ClockTime = 45 s

forces forces write:
    Sum of forces
        Total    : (0.268654 -0.358561 -2.18854)
        Pressure : (0.243113 -0.359608 -2.17839)
        Viscous  : (0.0255402 0.00104678 -0.0101537)
    Sum of moments
        Total    : (0.0169231 21.9963 -3.63981)
        Pressure : (0.0169263 21.8921 -3.65122)
        Viscous  : (-3.20945e-06 0.104237 0.0114118)
    writing force and moment files.

Time = 22

smoothSolver:  Solving for Ux, Initial residual = 0.0818728, Final residual = 0.00677862, No Iterations 7
smoothSolver:  Solving for Uy, Initial residual = 0.223518, Final residual = 0.0221382, No Iterations 6
smoothSolver:  Solving for Uz, Initial residual = 0.13276, Final residual = 0.01085, No Iterations 7
GAMG:  Solving for p, Initial residual = 0.0727926, Final residual = 0.000659277, No Iterations 9
GAMG:  Solving for p, Initial residual = 0.00671266, Final residual = 5.99795e-05, No Iterations 14
GAMG:  Solving for p, Initial residual = 0.000736793, Final residual = 7.34551e-06, No Iterations 17
time step continuity errors : sum local = 0.00158999, global = 1.1958e-05, cumulative = -0.000122645
smoothSolver:  Solving for omega, Initial residual = 0.00468113, Final residual = 0.000259379, No Iterations 3
smoothSolver:  Solving for k, Initial residual = 0.0386632, Final residual = 0.00191984, No Iterations 3
ExecutionTime = 44.24 s  ClockTime = 47 s

forces forces write:
    Sum of forces
        Total    : (0.157422 -0.269499 -1.36413)
        Pressure : (0.136866 -0.270397 -1.35624)
        Viscous  : (0.0205559 0.00089873 -0.00789085)
    Sum of moments
        Total    : (0.0121487 13.6692 -2.73815)
        Pressure : (0.0121767 13.588 -2.7481)
        Viscous  : (-2.79658e-05 0.0812495 0.00995146)
    writing force and moment files.

Time = 23

smoothSolver:  Solving for Ux, Initial residual = 0.0816314, Final residual = 0.00624329, No Iterations 7
smoothSolver:  Solving for Uy, Initial residual = 0.225686, Final residual = 0.0222398, No Iterations 6
smoothSolver:  Solving for Uz, Initial residual = 0.13225, Final residual = 0.0103003, No Iterations 7
GAMG:  Solving for p, Initial residual = 0.070917, Final residual = 0.000597239, No Iterations 9
GAMG:  Solving for p, Initial residual = 0.00643703, Final residual = 5.84936e-05, No Iterations 13
GAMG:  Solving for p, Initial residual = 0.000671372, Final residual = 6.00798e-06, No Iterations 17
time step continuity errors : sum local = 0.001234, global = 9.87603e-06, cumulative = -0.000112769
smoothSolver:  Solving for omega, Initial residual = 0.00448058, Final residual = 0.00024226, No Iterations 3
smoothSolver:  Solving for k, Initial residual = 0.0395233, Final residual = 0.00193803, No Iterations 3
ExecutionTime = 46.95 s  ClockTime = 51 s

forces forces write:
    Sum of forces
        Total    : (0.225231 -0.151073 -0.56666)
        Pressure : (0.207737 -0.152146 -0.562561)
        Viscous  : (0.0174937 0.00107287 -0.00409886)
    Sum of moments
        Total    : (0.00595129 5.64053 -1.53879)
        Pressure : (0.00600187 5.5976 -1.5505)
        Viscous  : (-5.05776e-05 0.0429303 0.0117104)
    writing force and moment files.

Time = 24

smoothSolver:  Solving for Ux, Initial residual = 0.0814535, Final residual = 0.00783269, No Iterations 6
smoothSolver:  Solving for Uy, Initial residual = 0.225371, Final residual = 0.0223867, No Iterations 6
smoothSolver:  Solving for Uz, Initial residual = 0.133705, Final residual = 0.0133401, No Iterations 6
GAMG:  Solving for p, Initial residual = 0.0700287, Final residual = 0.00059279, No Iterations 9
GAMG:  Solving for p, Initial residual = 0.00632696, Final residual = 5.52225e-05, No Iterations 13
GAMG:  Solving for p, Initial residual = 0.000658257, Final residual = 6.36413e-06, No Iterations 16
time step continuity errors : sum local = 0.00121002, global = -9.5512e-06, cumulative = -0.00012232
smoothSolver:  Solving for omega, Initial residual = 0.00429334, Final residual = 0.000224802, No Iterations 3
smoothSolver:  Solving for k, Initial residual = 0.0406164, Final residual = 0.00193279, No Iterations 3
ExecutionTime = 49.45 s  ClockTime = 54 s

forces forces write:
    Sum of forces
        Total    : (0.406221 -0.0379138 -0.0584224)
        Pressure : (0.392258 -0.0398622 -0.0563784)
        Viscous  : (0.0139635 0.00194848 -0.00204399)
    Sum of moments
        Total    : (0.000401299 0.542069 -0.391466)
        Pressure : (0.000483145 0.519946 -0.411925)
        Viscous  : (-8.18463e-05 0.0221224 0.0204591)
    writing force and moment files.

Time = 25

smoothSolver:  Solving for Ux, Initial residual = 0.0811384, Final residual = 0.00739725, No Iterations 6
smoothSolver:  Solving for Uy, Initial residual = 0.22354, Final residual = 0.0166327, No Iterations 7
smoothSolver:  Solving for Uz, Initial residual = 0.134448, Final residual = 0.0133034, No Iterations 6
GAMG:  Solving for p, Initial residual = 0.0698716, Final residual = 0.000590764, No Iterations 9
GAMG:  Solving for p, Initial residual = 0.00641804, Final residual = 5.3537e-05, No Iterations 13
GAMG:  Solving for p, Initial residual = 0.000674216, Final residual = 5.94587e-06, No Iterations 16
time step continuity errors : sum local = 0.00103347, global = -1.06785e-05, cumulative = -0.000132999
smoothSolver:  Solving for omega, Initial residual = 0.00405668, Final residual = 0.000206477, No Iterations 3
smoothSolver:  Solving for k, Initial residual = 0.0412642, Final residual = 0.00189857, No Iterations 3
ExecutionTime = 51.78 s  ClockTime = 57 s

forces forces write:
    Sum of forces
        Total    : (0.623852 0.046766 0.210576)
        Pressure : (0.611273 0.044956 0.210393)
        Viscous  : (0.012579 0.00181004 0.000183792)
    Sum of moments
        Total    : (-0.00365174 -2.14631 0.468313)
        Pressure : (-0.00357448 -2.14598 0.449383)
        Viscous  : (-7.72617e-05 -0.000328174 0.0189299)
    writing force and moment files.

Time = 26

smoothSolver:  Solving for Ux, Initial residual = 0.0803613, Final residual = 0.0070547, No Iterations 6
smoothSolver:  Solving for Uy, Initial residual = 0.221169, Final residual = 0.0167198, No Iterations 7
smoothSolver:  Solving for Uz, Initial residual = 0.135199, Final residual = 0.0132865, No Iterations 6
GAMG:  Solving for p, Initial residual = 0.0706144, Final residual = 0.000639657, No Iterations 9
GAMG:  Solving for p, Initial residual = 0.00651153, Final residual = 5.62744e-05, No Iterations 13
GAMG:  Solving for p, Initial residual = 0.000674174, Final residual = 5.85909e-06, No Iterations 16
time step continuity errors : sum local = 0.0009189, global = -9.77786e-06, cumulative = -0.000142777
smoothSolver:  Solving for omega, Initial residual = 0.00379494, Final residual = 0.000188655, No Iterations 3
smoothSolver:  Solving for k, Initial residual = 0.041548, Final residual = 0.00184754, No Iterations 3
ExecutionTime = 54.23 s  ClockTime = 60 s

forces forces write:
    Sum of forces
        Total    : (0.765735 0.0977306 0.30478)
        Pressure : (0.754751 0.0954223 0.303609)
        Viscous  : (0.0109843 0.00230829 0.0011716)
    Sum of moments
        Total    : (-0.00600776 -3.08313 0.98609)
        Pressure : (-0.00592709 -3.07281 0.962197)
        Viscous  : (-8.06622e-05 -0.0103178 0.0238933)
    writing force and moment files.

Time = 27

smoothSolver:  Solving for Ux, Initial residual = 0.0785805, Final residual = 0.00676451, No Iterations 6
smoothSolver:  Solving for Uy, Initial residual = 0.217918, Final residual = 0.0166784, No Iterations 7
smoothSolver:  Solving for Uz, Initial residual = 0.136172, Final residual = 0.0132861, No Iterations 6
GAMG:  Solving for p, Initial residual = 0.0726802, Final residual = 0.000707545, No Iterations 9
GAMG:  Solving for p, Initial residual = 0.00668838, Final residual = 5.89556e-05, No Iterations 13
GAMG:  Solving for p, Initial residual = 0.000672998, Final residual = 5.94428e-06, No Iterations 16
time step continuity errors : sum local = 0.000831319, global = -9.77934e-06, cumulative = -0.000152556
smoothSolver:  Solving for omega, Initial residual = 0.00355906, Final residual = 0.000172419, No Iterations 3
smoothSolver:  Solving for k, Initial residual = 0.041008, Final residual = 0.00178676, No Iterations 3
ExecutionTime = 56.8 s  ClockTime = 63 s

forces forces write:
    Sum of forces
        Total    : (0.810729 0.114683 0.315947)
        Pressure : (0.800302 0.112728 0.313861)
        Viscous  : (0.0104267 0.0019553 0.00208558)
    Sum of moments
        Total    : (-0.00694485 -3.19322 1.15866)
        Pressure : (-0.00687371 -3.17373 1.13833)
        Viscous  : (-7.1139e-05 -0.0194881 0.0203282)
    writing force and moment files.

Time = 28

smoothSolver:  Solving for Ux, Initial residual = 0.075997, Final residual = 0.00641405, No Iterations 6
smoothSolver:  Solving for Uy, Initial residual = 0.210301, Final residual = 0.0164318, No Iterations 7
smoothSolver:  Solving for Uz, Initial residual = 0.135636, Final residual = 0.0133497, No Iterations 6
GAMG:  Solving for p, Initial residual = 0.0759703, Final residual = 0.000662651, No Iterations 9
GAMG:  Solving for p, Initial residual = 0.00688604, Final residual = 6.61263e-05, No Iterations 12
GAMG:  Solving for p, Initial residual = 0.000683074, Final residual = 6.00363e-06, No Iterations 16
time step continuity errors : sum local = 0.000741105, global = -8.92823e-06, cumulative = -0.000161484
smoothSolver:  Solving for omega, Initial residual = 0.00333551, Final residual = 0.000159919, No Iterations 3
smoothSolver:  Solving for k, Initial residual = 0.0399602, Final residual = 0.00172826, No Iterations 3
ExecutionTime = 59.29 s  ClockTime = 67 s

forces forces write:
    Sum of forces
        Total    : (0.76124 0.108635 0.315109)
        Pressure : (0.751112 0.10654 0.312837)
        Viscous  : (0.0101285 0.00209438 0.00227241)
    Sum of moments
        Total    : (-0.00680196 -3.19072 1.09771)
        Pressure : (-0.00671704 -3.16941 1.07605)
        Viscous  : (-8.49172e-05 -0.0213128 0.0216557)
    writing force and moment files.

Time = 29

smoothSolver:  Solving for Ux, Initial residual = 0.0734398, Final residual = 0.00605021, No Iterations 6
smoothSolver:  Solving for Uy, Initial residual = 0.198435, Final residual = 0.0158115, No Iterations 7
smoothSolver:  Solving for Uz, Initial residual = 0.136207, Final residual = 0.0135738, No Iterations 6
GAMG:  Solving for p, Initial residual = 0.0796363, Final residual = 0.000503303, No Iterations 10
GAMG:  Solving for p, Initial residual = 0.00691343, Final residual = 6.21417e-05, No Iterations 11
GAMG:  Solving for p, Initial residual = 0.000655464, Final residual = 6.24617e-06, No Iterations 15
time step continuity errors : sum local = 0.000679494, global = -9.02673e-06, cumulative = -0.000170511
smoothSolver:  Solving for omega, Initial residual = 0.00305712, Final residual = 0.000149137, No Iterations 3
smoothSolver:  Solving for k, Initial residual = 0.038372, Final residual = 0.00170222, No Iterations 3
ExecutionTime = 61.88 s  ClockTime = 70 s

forces forces write:
    Sum of forces
        Total    : (0.671147 0.0826082 0.309513)
        Pressure : (0.660591 0.0807442 0.306912)
        Viscous  : (0.0105559 0.00186399 0.00260152)
    Sum of moments
        Total    : (-0.0056209 -3.14223 0.834163)
        Pressure : (-0.00553446 -3.11765 0.814907)
        Viscous  : (-8.64336e-05 -0.0245729 0.0192563)
    writing force and moment files.

Time = 30

smoothSolver:  Solving for Ux, Initial residual = 0.070438, Final residual = 0.00566523, No Iterations 6
smoothSolver:  Solving for Uy, Initial residual = 0.184078, Final residual = 0.0149127, No Iterations 7
smoothSolver:  Solving for Uz, Initial residual = 0.135376, Final residual = 0.0102535, No Iterations 7
GAMG:  Solving for p, Initial residual = 0.0835934, Final residual = 0.000747969, No Iterations 8
GAMG:  Solving for p, Initial residual = 0.00717705, Final residual = 6.03894e-05, No Iterations 12
GAMG:  Solving for p, Initial residual = 0.0006951, Final residual = 6.25874e-06, No Iterations 15
time step continuity errors : sum local = 0.000604662, global = -7.47267e-06, cumulative = -0.000177984
smoothSolver:  Solving for omega, Initial residual = 0.00277681, Final residual = 0.000140585, No Iterations 3
smoothSolver:  Solving for k, Initial residual = 0.0361935, Final residual = 0.00169454, No Iterations 3
ExecutionTime = 64.18 s  ClockTime = 73 s

forces forces write:
    Sum of forces
        Total    : (0.591979 0.0607915 0.272539)
        Pressure : (0.580216 0.058609 0.270342)
        Viscous  : (0.0117634 0.00218244 0.00219656)
    Sum of moments
        Total    : (-0.00432622 -2.77464 0.612476)
        Pressure : (-0.0042324 -2.75424 0.590112)
        Viscous  : (-9.38269e-05 -0.0204011 0.022364)
    writing force and moment files.

Time = 31

smoothSolver:  Solving for Ux, Initial residual = 0.0664176, Final residual = 0.00532994, No Iterations 6
smoothSolver:  Solving for Uy, Initial residual = 0.170904, Final residual = 0.0141807, No Iterations 7
smoothSolver:  Solving for Uz, Initial residual = 0.128171, Final residual = 0.0100393, No Iterations 7
GAMG:  Solving for p, Initial residual = 0.0847361, Final residual = 0.000696969, No Iterations 8
GAMG:  Solving for p, Initial residual = 0.00699399, Final residual = 5.45133e-05, No Iterations 12
GAMG:  Solving for p, Initial residual = 0.000680286, Final residual = 5.98563e-06, No Iterations 15
time step continuity errors : sum local = 0.000527965, global = -6.30949e-06, cumulative = -0.000184293
smoothSolver:  Solving for omega, Initial residual = 0.00253498, Final residual = 0.000133281, No Iterations 3
smoothSolver:  Solving for k, Initial residual = 0.0335874, Final residual = 0.0016753, No Iterations 3
ExecutionTime = 66.59 s  ClockTime = 76 s

forces forces write:
    Sum of forces
        Total    : (0.529878 0.0593185 0.216895)
        Pressure : (0.516862 0.0572407 0.214851)
        Viscous  : (0.0130157 0.00207777 0.0020444)
    Sum of moments
        Total    : (-0.00387421 -2.21684 0.595628)
        Pressure : (-0.00377156 -2.19801 0.574383)
        Viscous  : (-0.000102646 -0.0188331 0.0212451)
    writing force and moment files.

Time = 32

smoothSolver:  Solving for Ux, Initial residual = 0.0616036, Final residual = 0.00500673, No Iterations 6
smoothSolver:  Solving for Uy, Initial residual = 0.159101, Final residual = 0.0136257, No Iterations 7
smoothSolver:  Solving for Uz, Initial residual = 0.11916, Final residual = 0.00976434, No Iterations 7
GAMG:  Solving for p, Initial residual = 0.0836906, Final residual = 0.00069063, No Iterations 8
GAMG:  Solving for p, Initial residual = 0.00670079, Final residual = 6.30536e-05, No Iterations 11
GAMG:  Solving for p, Initial residual = 0.000663127, Final residual = 6.22488e-06, No Iterations 15
time step continuity errors : sum local = 0.000514694, global = -6.2596e-06, cumulative = -0.000190553
smoothSolver:  Solving for omega, Initial residual = 0.0023129, Final residual = 0.000126033, No Iterations 3
smoothSolver:  Solving for k, Initial residual = 0.0312677, Final residual = 0.00164102, No Iterations 3
ExecutionTime = 68.94 s  ClockTime = 79 s

forces forces write:
    Sum of forces
        Total    : (0.491403 0.0822143 0.142409)
        Pressure : (0.476668 0.0798575 0.141006)
        Viscous  : (0.0147352 0.0023568 0.00140341)
    Sum of moments
        Total    : (-0.00439441 -1.46601 0.824683)
        Pressure : (-0.00427181 -1.45362 0.800695)
        Viscous  : (-0.000122603 -0.0123828 0.0239876)
    writing force and moment files.

Time = 33

smoothSolver:  Solving for Ux, Initial residual = 0.0564643, Final residual = 0.00473443, No Iterations 6
smoothSolver:  Solving for Uy, Initial residual = 0.149482, Final residual = 0.0132302, No Iterations 7
smoothSolver:  Solving for Uz, Initial residual = 0.11177, Final residual = 0.00943085, No Iterations 7
GAMG:  Solving for p, Initial residual = 0.0808741, Final residual = 0.000718003, No Iterations 8
GAMG:  Solving for p, Initial residual = 0.00646567, Final residual = 6.39984e-05, No Iterations 11
GAMG:  Solving for p, Initial residual = 0.000648338, Final residual = 6.36972e-06, No Iterations 15
time step continuity errors : sum local = 0.000495581, global = -3.62543e-06, cumulative = -0.000194178
smoothSolver:  Solving for omega, Initial residual = 0.00209936, Final residual = 0.000117763, No Iterations 3
smoothSolver:  Solving for k, Initial residual = 0.0290035, Final residual = 0.0015995, No Iterations 3
ExecutionTime = 71.36 s  ClockTime = 82 s

forces forces write:
    Sum of forces
        Total    : (0.466034 0.121224 0.0717658)
        Pressure : (0.449399 0.118627 0.0708212)
        Viscous  : (0.0166353 0.00259708 0.000944539)
    Sum of moments
        Total    : (-0.00545939 -0.751731 1.21711)
        Pressure : (-0.00531351 -0.743974 1.19073)
        Viscous  : (-0.000145888 -0.00775699 0.0263754)
    writing force and moment files.

Time = 34

smoothSolver:  Solving for Ux, Initial residual = 0.0515826, Final residual = 0.00450066, No Iterations 6
smoothSolver:  Solving for Uy, Initial residual = 0.141461, Final residual = 0.0128254, No Iterations 7
smoothSolver:  Solving for Uz, Initial residual = 0.107166, Final residual = 0.00910008, No Iterations 7
GAMG:  Solving for p, Initial residual = 0.0791964, Final residual = 0.000733797, No Iterations 8
GAMG:  Solving for p, Initial residual = 0.00627075, Final residual = 5.14085e-05, No Iterations 12
GAMG:  Solving for p, Initial residual = 0.000626695, Final residual = 5.7975e-06, No Iterations 15
time step continuity errors : sum local = 0.000429531, global = -3.17e-06, cumulative = -0.000197348
smoothSolver:  Solving for omega, Initial residual = 0.00189803, Final residual = 0.000109484, No Iterations 3
smoothSolver:  Solving for k, Initial residual = 0.0269103, Final residual = 0.0015509, No Iterations 3
ExecutionTime = 73.57 s  ClockTime = 84 s

forces forces write:
    Sum of forces
        Total    : (0.447452 0.165721 0.0209775)
        Pressure : (0.428734 0.162372 0.0203685)
        Viscous  : (0.0187186 0.00334952 0.000609057)
    Sum of moments
        Total    : (-0.00664489 -0.236763 1.66537)
        Pressure : (-0.00646254 -0.232429 1.63147)
        Viscous  : (-0.00018235 -0.00433429 0.0339018)
    writing force and moment files.

Time = 35

smoothSolver:  Solving for Ux, Initial residual = 0.0471619, Final residual = 0.00425752, No Iterations 6
smoothSolver:  Solving for Uy, Initial residual = 0.135028, Final residual = 0.0124446, No Iterations 7
smoothSolver:  Solving for Uz, Initial residual = 0.10379, Final residual = 0.00881973, No Iterations 7
GAMG:  Solving for p, Initial residual = 0.0776663, Final residual = 0.00072232, No Iterations 8
GAMG:  Solving for p, Initial residual = 0.0061468, Final residual = 5.27127e-05, No Iterations 12
GAMG:  Solving for p, Initial residual = 0.000622307, Final residual = 6.00319e-06, No Iterations 15
time step continuity errors : sum local = 0.000424481, global = -3.99954e-06, cumulative = -0.000201348
smoothSolver:  Solving for omega, Initial residual = 0.00172228, Final residual = 0.000100656, No Iterations 3
smoothSolver:  Solving for k, Initial residual = 0.0250666, Final residual = 0.00149542, No Iterations 3
ExecutionTime = 75.63 s  ClockTime = 86 s

forces forces write:
    Sum of forces
        Total    : (0.429544 0.203024 0.00455139)
        Pressure : (0.408921 0.199222 0.00406607)
        Viscous  : (0.0206229 0.00380162 0.000485325)
    Sum of moments
        Total    : (-0.00766867 -0.068917 2.04175)
        Pressure : (-0.00745777 -0.0658955 2.00333)
        Viscous  : (-0.000210896 -0.00302146 0.0384173)
    writing force and moment files.

Time = 36

smoothSolver:  Solving for Ux, Initial residual = 0.043649, Final residual = 0.00400971, No Iterations 6
smoothSolver:  Solving for Uy, Initial residual = 0.129654, Final residual = 0.012058, No Iterations 7
smoothSolver:  Solving for Uz, Initial residual = 0.101265, Final residual = 0.00858863, No Iterations 7
GAMG:  Solving for p, Initial residual = 0.0765583, Final residual = 0.000718427, No Iterations 8
GAMG:  Solving for p, Initial residual = 0.00613854, Final residual = 5.51822e-05, No Iterations 12
GAMG:  Solving for p, Initial residual = 0.000632364, Final residual = 5.40563e-06, No Iterations 16
time step continuity errors : sum local = 0.000363199, global = -3.44399e-06, cumulative = -0.000204792
smoothSolver:  Solving for omega, Initial residual = 0.00157145, Final residual = 9.27074e-05, No Iterations 3
smoothSolver:  Solving for k, Initial residual = 0.0236681, Final residual = 0.00144161, No Iterations 3
ExecutionTime = 77.91 s  ClockTime = 89 s

forces forces write:
    Sum of forces
        Total    : (0.412168 0.22411 0.0243543)
        Pressure : (0.389644 0.219837 0.0238795)
        Viscous  : (0.0225248 0.00427264 0.000474824)
    Sum of moments
        Total    : (-0.00835673 -0.268067 2.25473)
        Pressure : (-0.0081187 -0.265208 2.21162)
        Viscous  : (-0.000238034 -0.0028592 0.0431112)
    writing force and moment files.

Time = 37

smoothSolver:  Solving for Ux, Initial residual = 0.0410037, Final residual = 0.00376446, No Iterations 6
smoothSolver:  Solving for Uy, Initial residual = 0.125712, Final residual = 0.0117428, No Iterations 7
smoothSolver:  Solving for Uz, Initial residual = 0.0996117, Final residual = 0.0083354, No Iterations 7
GAMG:  Solving for p, Initial residual = 0.0755184, Final residual = 0.000741245, No Iterations 8
GAMG:  Solving for p, Initial residual = 0.00618802, Final residual = 5.87198e-05, No Iterations 12
GAMG:  Solving for p, Initial residual = 0.00065081, Final residual = 5.71168e-06, No Iterations 16
time step continuity errors : sum local = 0.000366137, global = -3.64205e-06, cumulative = -0.000208434
smoothSolver:  Solving for omega, Initial residual = 0.00144495, Final residual = 8.56774e-05, No Iterations 3
smoothSolver:  Solving for k, Initial residual = 0.0226264, Final residual = 0.00139525, No Iterations 3
ExecutionTime = 80.26 s  ClockTime = 92 s

forces forces write:
    Sum of forces
        Total    : (0.397303 0.229658 0.0655507)
        Pressure : (0.37264 0.225119 0.064787)
        Viscous  : (0.0246636 0.00453931 0.000763705)
    Sum of moments
        Total    : (-0.00863387 -0.684688 2.31116)
        Pressure : (-0.00837667 -0.678969 2.26541)
        Viscous  : (-0.000257197 -0.00571894 0.0457519)
    writing force and moment files.

Time = 38

smoothSolver:  Solving for Ux, Initial residual = 0.0388546, Final residual = 0.00351311, No Iterations 6
smoothSolver:  Solving for Uy, Initial residual = 0.123749, Final residual = 0.0114964, No Iterations 7
smoothSolver:  Solving for Uz, Initial residual = 0.0983551, Final residual = 0.00811301, No Iterations 7
GAMG:  Solving for p, Initial residual = 0.075127, Final residual = 0.000584414, No Iterations 9
GAMG:  Solving for p, Initial residual = 0.00619293, Final residual = 5.4656e-05, No Iterations 12
GAMG:  Solving for p, Initial residual = 0.000652847, Final residual = 5.54749e-06, No Iterations 16
time step continuity errors : sum local = 0.000336884, global = -3.61214e-06, cumulative = -0.000212046
smoothSolver:  Solving for omega, Initial residual = 0.00133408, Final residual = 7.99124e-05, No Iterations 3
smoothSolver:  Solving for k, Initial residual = 0.0217982, Final residual = 0.00135146, No Iterations 3
ExecutionTime = 82.63 s  ClockTime = 94 s

forces forces write:
    Sum of forces
        Total    : (0.386227 0.223872 0.109926)
        Pressure : (0.359554 0.219024 0.109114)
        Viscous  : (0.0266731 0.00484732 0.000812188)
    Sum of moments
        Total    : (-0.00847616 -1.13395 2.2535)
        Pressure : (-0.00820698 -1.12778 2.20467)
        Viscous  : (-0.000269176 -0.0061718 0.0488304)
    writing force and moment files.

Time = 39

smoothSolver:  Solving for Ux, Initial residual = 0.0370899, Final residual = 0.00328751, No Iterations 6
smoothSolver:  Solving for Uy, Initial residual = 0.122853, Final residual = 0.0113052, No Iterations 7
smoothSolver:  Solving for Uz, Initial residual = 0.0975376, Final residual = 0.00797946, No Iterations 7
GAMG:  Solving for p, Initial residual = 0.0749285, Final residual = 0.000603594, No Iterations 9
GAMG:  Solving for p, Initial residual = 0.00629777, Final residual = 5.75575e-05, No Iterations 12
GAMG:  Solving for p, Initial residual = 0.000670403, Final residual = 5.77835e-06, No Iterations 16
time step continuity errors : sum local = 0.000332506, global = -3.62745e-06, cumulative = -0.000215673
smoothSolver:  Solving for omega, Initial residual = 0.00122433, Final residual = 7.41477e-05, No Iterations 3
smoothSolver:  Solving for k, Initial residual = 0.021266, Final residual = 0.00131115, No Iterations 3
ExecutionTime = 85.01 s  ClockTime = 97 s

forces forces write:
    Sum of forces
        Total    : (0.383015 0.214697 0.14791)
        Pressure : (0.354146 0.20967 0.146841)
        Viscous  : (0.0288686 0.00502686 0.00106901)
    Sum of moments
        Total    : (-0.00811375 -1.51858 2.16218)
        Pressure : (-0.00784159 -1.50986 2.11155)
        Viscous  : (-0.00027216 -0.00871397 0.0506307)
    writing force and moment files.

Time = 40

smoothSolver:  Solving for Ux, Initial residual = 0.0352243, Final residual = 0.00309367, No Iterations 6
smoothSolver:  Solving for Uy, Initial residual = 0.122737, Final residual = 0.011184, No Iterations 7
smoothSolver:  Solving for Uz, Initial residual = 0.0964908, Final residual = 0.00790784, No Iterations 7
GAMG:  Solving for p, Initial residual = 0.0745618, Final residual = 0.000590542, No Iterations 9
GAMG:  Solving for p, Initial residual = 0.0062886, Final residual = 5.80915e-05, No Iterations 12
GAMG:  Solving for p, Initial residual = 0.000671529, Final residual = 5.90896e-06, No Iterations 16
time step continuity errors : sum local = 0.000321506, global = -3.69206e-06, cumulative = -0.000219365
smoothSolver:  Solving for omega, Initial residual = 0.00112595, Final residual = 6.91898e-05, No Iterations 3
smoothSolver:  Solving for k, Initial residual = 0.0207156, Final residual = 0.00126815, No Iterations 3
ExecutionTime = 87.24 s  ClockTime = 99 s

forces forces write:
    Sum of forces
        Total    : (0.388144 0.206248 0.173287)
        Pressure : (0.35747 0.201128 0.172098)
        Viscous  : (0.0306736 0.0051207 0.00118925)
    Sum of moments
        Total    : (-0.00770183 -1.77493 2.07881)
        Pressure : (-0.00743761 -1.76503 2.02722)
        Viscous  : (-0.000264227 -0.00990538 0.0515842)
    writing force and moment files.

Time = 41

smoothSolver:  Solving for Ux, Initial residual = 0.0329644, Final residual = 0.00293945, No Iterations 6
smoothSolver:  Solving for Uy, Initial residual = 0.121381, Final residual = 0.0111427, No Iterations 7
smoothSolver:  Solving for Uz, Initial residual = 0.0947354, Final residual = 0.00785335, No Iterations 7
GAMG:  Solving for p, Initial residual = 0.0740308, Final residual = 0.000726498, No Iterations 8
GAMG:  Solving for p, Initial residual = 0.00623313, Final residual = 5.20206e-05, No Iterations 13
GAMG:  Solving for p, Initial residual = 0.000668518, Final residual = 5.74361e-06, No Iterations 16
time step continuity errors : sum local = 0.000295696, global = -3.29178e-06, cumulative = -0.000222657
smoothSolver:  Solving for omega, Initial residual = 0.00103892, Final residual = 6.43231e-05, No Iterations 3
smoothSolver:  Solving for k, Initial residual = 0.0200539, Final residual = 0.00122413, No Iterations 3
ExecutionTime = 89.51 s  ClockTime = 102 s

forces forces write:
    Sum of forces
        Total    : (0.398689 0.196479 0.18346)
        Pressure : (0.36597 0.191447 0.182197)
        Viscous  : (0.0327198 0.00503156 0.00126302)
    Sum of moments
        Total    : (-0.00727147 -1.87639 1.98252)
        Pressure : (-0.00702063 -1.86579 1.93183)
        Viscous  : (-0.000250837 -0.0106038 0.0506887)
    writing force and moment files.

Time = 42

smoothSolver:  Solving for Ux, Initial residual = 0.030315, Final residual = 0.00279295, No Iterations 6
smoothSolver:  Solving for Uy, Initial residual = 0.117245, Final residual = 0.0110923, No Iterations 7
smoothSolver:  Solving for Uz, Initial residual = 0.0914601, Final residual = 0.00776262, No Iterations 7
GAMG:  Solving for p, Initial residual = 0.0728843, Final residual = 0.000653032, No Iterations 8
GAMG:  Solving for p, Initial residual = 0.00595882, Final residual = 5.86861e-05, No Iterations 12
GAMG:  Solving for p, Initial residual = 0.000640307, Final residual = 5.82966e-06, No Iterations 16
time step continuity errors : sum local = 0.000285724, global = -1.67703e-07, cumulative = -0.000222825
smoothSolver:  Solving for omega, Initial residual = 0.000965206, Final residual = 6.03014e-05, No Iterations 3
smoothSolver:  Solving for k, Initial residual = 0.0191842, Final residual = 0.0011851, No Iterations 3
ExecutionTime = 92.01 s  ClockTime = 105 s

forces forces write:
    Sum of forces
        Total    : (0.409452 0.18523 0.183939)
        Pressure : (0.37531 0.180464 0.182656)
        Viscous  : (0.0341425 0.00476629 0.00128237)
    Sum of moments
        Total    : (-0.00692133 -1.87874 1.87163)
        Pressure : (-0.00669185 -1.86795 1.8236)
        Viscous  : (-0.000229477 -0.0107858 0.0480304)
    writing force and moment files.

Time = 43

smoothSolver:  Solving for Ux, Initial residual = 0.0277805, Final residual = 0.0026364, No Iterations 6
smoothSolver:  Solving for Uy, Initial residual = 0.111808, Final residual = 0.0109122, No Iterations 7
smoothSolver:  Solving for Uz, Initial residual = 0.0874419, Final residual = 0.00760683, No Iterations 7
GAMG:  Solving for p, Initial residual = 0.0716024, Final residual = 0.00058737, No Iterations 8
GAMG:  Solving for p, Initial residual = 0.00577157, Final residual = 5.68054e-05, No Iterations 12
GAMG:  Solving for p, Initial residual = 0.000620023, Final residual = 5.72695e-06, No Iterations 16
time step continuity errors : sum local = 0.000267709, global = 1.82444e-06, cumulative = -0.000221
smoothSolver:  Solving for omega, Initial residual = 0.000903687, Final residual = 5.71287e-05, No Iterations 3
smoothSolver:  Solving for k, Initial residual = 0.0182221, Final residual = 0.00114687, No Iterations 3
ExecutionTime = 94.16 s  ClockTime = 107 s

forces forces write:
    Sum of forces
        Total    : (0.421528 0.17149 0.180364)
        Pressure : (0.386035 0.167133 0.179158)
        Viscous  : (0.035493 0.00435697 0.00120553)
    Sum of moments
        Total    : (-0.00659913 -1.83886 1.73555)
        Pressure : (-0.00639532 -1.8289 1.69163)
        Viscous  : (-0.000203818 -0.00996513 0.0439142)
    writing force and moment files.

Time = 44

smoothSolver:  Solving for Ux, Initial residual = 0.0257945, Final residual = 0.00247241, No Iterations 6
smoothSolver:  Solving for Uy, Initial residual = 0.108038, Final residual = 0.0106237, No Iterations 7
smoothSolver:  Solving for Uz, Initial residual = 0.0840015, Final residual = 0.0074047, No Iterations 7
GAMG:  Solving for p, Initial residual = 0.070311, Final residual = 0.000552888, No Iterations 8
GAMG:  Solving for p, Initial residual = 0.0057362, Final residual = 5.72579e-05, No Iterations 12
GAMG:  Solving for p, Initial residual = 0.000618262, Final residual = 5.8519e-06, No Iterations 16
time step continuity errors : sum local = 0.000261186, global = 2.11942e-06, cumulative = -0.000218881
smoothSolver:  Solving for omega, Initial residual = 0.000850946, Final residual = 5.44566e-05, No Iterations 3
smoothSolver:  Solving for k, Initial residual = 0.017263, Final residual = 0.00110538, No Iterations 3
ExecutionTime = 96.23 s  ClockTime = 109 s

forces forces write:
    Sum of forces
        Total    : (0.437796 0.153911 0.179192)
        Pressure : (0.401035 0.150155 0.178212)
        Viscous  : (0.0367612 0.00375613 0.000980221)
    Sum of moments
        Total    : (-0.00616766 -1.82232 1.56041)
        Pressure : (-0.00599409 -1.81466 1.52253)
        Viscous  : (-0.000173574 -0.0076594 0.0378791)
    writing force and moment files.

Time = 45

smoothSolver:  Solving for Ux, Initial residual = 0.0243359, Final residual = 0.00231787, No Iterations 6
smoothSolver:  Solving for Uy, Initial residual = 0.106304, Final residual = 0.0103658, No Iterations 7
smoothSolver:  Solving for Uz, Initial residual = 0.0820958, Final residual = 0.00723108, No Iterations 7
GAMG:  Solving for p, Initial residual = 0.0690373, Final residual = 0.000545129, No Iterations 8
GAMG:  Solving for p, Initial residual = 0.0057318, Final residual = 4.81391e-05, No Iterations 13
GAMG:  Solving for p, Initial residual = 0.000614647, Final residual = 5.51698e-06, No Iterations 16
time step continuity errors : sum local = 0.000235854, global = 2.00982e-06, cumulative = -0.000216871
smoothSolver:  Solving for omega, Initial residual = 0.000808045, Final residual = 5.23873e-05, No Iterations 3
smoothSolver:  Solving for k, Initial residual = 0.0164385, Final residual = 0.00107163, No Iterations 3
ExecutionTime = 98.38 s  ClockTime = 112 s

forces forces write:
    Sum of forces
        Total    : (0.456122 0.13308 0.181685)
        Pressure : (0.41821 0.129944 0.180909)
        Viscous  : (0.0379123 0.00313561 0.00077635)
    Sum of moments
        Total    : (-0.00548729 -1.84222 1.35191)
        Pressure : (-0.00534194 -1.83667 1.32026)
        Viscous  : (-0.000145354 -0.00554352 0.03165)
    writing force and moment files.

Time = 46

smoothSolver:  Solving for Ux, Initial residual = 0.0229362, Final residual = 0.00217636, No Iterations 6
smoothSolver:  Solving for Uy, Initial residual = 0.105157, Final residual = 0.010182, No Iterations 7
smoothSolver:  Solving for Uz, Initial residual = 0.0805927, Final residual = 0.00711769, No Iterations 7
GAMG:  Solving for p, Initial residual = 0.0677128, Final residual = 0.0005463, No Iterations 8
GAMG:  Solving for p, Initial residual = 0.00568997, Final residual = 4.84554e-05, No Iterations 13
GAMG:  Solving for p, Initial residual = 0.000614725, Final residual = 5.64566e-06, No Iterations 16
time step continuity errors : sum local = 0.000230384, global = 2.06441e-06, cumulative = -0.000214807
smoothSolver:  Solving for omega, Initial residual = 0.000767578, Final residual = 5.03429e-05, No Iterations 3
smoothSolver:  Solving for k, Initial residual = 0.0157117, Final residual = 0.00105087, No Iterations 3
ExecutionTime = 100.5 s  ClockTime = 114 s

forces forces write:
    Sum of forces
        Total    : (0.473821 0.109092 0.186477)
        Pressure : (0.43472 0.106667 0.185943)
        Viscous  : (0.0391003 0.00242541 0.000534027)
    Sum of moments
        Total    : (-0.00446739 -1.88512 1.11089)
        Pressure : (-0.00435267 -1.88207 1.08637)
        Viscous  : (-0.000114722 -0.00304939 0.0245195)
    writing force and moment files.

Time = 47

smoothSolver:  Solving for Ux, Initial residual = 0.0214627, Final residual = 0.00205339, No Iterations 6
smoothSolver:  Solving for Uy, Initial residual = 0.102978, Final residual = 0.00999841, No Iterations 7
smoothSolver:  Solving for Uz, Initial residual = 0.078482, Final residual = 0.0069826, No Iterations 7
GAMG:  Solving for p, Initial residual = 0.0659908, Final residual = 0.000553306, No Iterations 8
GAMG:  Solving for p, Initial residual = 0.00557464, Final residual = 4.89914e-05, No Iterations 13
GAMG:  Solving for p, Initial residual = 0.000607483, Final residual = 5.81583e-06, No Iterations 16
time step continuity errors : sum local = 0.000227224, global = 2.16847e-06, cumulative = -0.000212638
smoothSolver:  Solving for omega, Initial residual = 0.000728911, Final residual = 4.87324e-05, No Iterations 3
smoothSolver:  Solving for k, Initial residual = 0.0150079, Final residual = 0.00103804, No Iterations 3
ExecutionTime = 102.59 s  ClockTime = 116 s

forces forces write:
    Sum of forces
        Total    : (0.486371 0.0821608 0.189816)
        Pressure : (0.446174 0.0804219 0.189427)
        Viscous  : (0.0401972 0.00173895 0.000388362)
    Sum of moments
        Total    : (-0.00310624 -1.91358 0.83954)
        Pressure : (-0.00301866 -1.91207 0.821911)
        Viscous  : (-8.75769e-05 -0.00151389 0.0176297)
    writing force and moment files.

Time = 48

smoothSolver:  Solving for Ux, Initial residual = 0.0199815, Final residual = 0.00195128, No Iterations 6
smoothSolver:  Solving for Uy, Initial residual = 0.0998702, Final residual = 0.00972437, No Iterations 7
smoothSolver:  Solving for Uz, Initial residual = 0.075557, Final residual = 0.00680428, No Iterations 7
GAMG:  Solving for p, Initial residual = 0.0641732, Final residual = 0.00056171, No Iterations 8
GAMG:  Solving for p, Initial residual = 0.00542711, Final residual = 5.05628e-05, No Iterations 13
GAMG:  Solving for p, Initial residual = 0.000599052, Final residual = 5.14138e-06, No Iterations 17
time step continuity errors : sum local = 0.000191996, global = 1.99827e-06, cumulative = -0.00021064
smoothSolver:  Solving for omega, Initial residual = 0.000690258, Final residual = 4.69743e-05, No Iterations 3
smoothSolver:  Solving for k, Initial residual = 0.0143425, Final residual = 0.0010322, No Iterations 3
ExecutionTime = 104.78 s  ClockTime = 118 s

forces forces write:
    Sum of forces
        Total    : (0.491138 0.0543035 0.191176)
        Pressure : (0.449976 0.0532739 0.190885)
        Viscous  : (0.0411611 0.00102965 0.000290813)
    Sum of moments
        Total    : (-0.00158591 -1.92256 0.558275)
        Pressure : (-0.00152511 -1.92208 0.547772)
        Viscous  : (-6.0792e-05 -0.000478176 0.0105031)
    writing force and moment files.

Time = 49

smoothSolver:  Solving for Ux, Initial residual = 0.0185869, Final residual = 0.00139195, No Iterations 7
smoothSolver:  Solving for Uy, Initial residual = 0.0960829, Final residual = 0.00937093, No Iterations 7
smoothSolver:  Solving for Uz, Initial residual = 0.0723882, Final residual = 0.00661287, No Iterations 7
GAMG:  Solving for p, Initial residual = 0.0622784, Final residual = 0.000571404, No Iterations 8
GAMG:  Solving for p, Initial residual = 0.00531291, Final residual = 4.41652e-05, No Iterations 14
GAMG:  Solving for p, Initial residual = 0.000588372, Final residual = 5.09069e-06, No Iterations 17
time step continuity errors : sum local = 0.000181556, global = 2.04975e-06, cumulative = -0.00020859
smoothSolver:  Solving for omega, Initial residual = 0.000654754, Final residual = 4.54778e-05, No Iterations 3
smoothSolver:  Solving for k, Initial residual = 0.0137212, Final residual = 0.00103281, No Iterations 3
ExecutionTime = 106.99 s  ClockTime = 121 s

forces forces write:
    Sum of forces
        Total    : (0.494409 0.0283667 0.193577)
        Pressure : (0.452416 0.0279703 0.193288)
        Viscous  : (0.041993 0.000396361 0.000289806)
    Sum of moments
        Total    : (-9.23772e-05 -1.94275 0.295422)
        Pressure : (-5.46328e-05 -1.94234 0.291277)
        Viscous  : (-3.77444e-05 -0.000403872 0.00414468)
    writing force and moment files.

Time = 50

smoothSolver:  Solving for Ux, Initial residual = 0.017196, Final residual = 0.00132512, No Iterations 7
smoothSolver:  Solving for Uy, Initial residual = 0.0923372, Final residual = 0.0090278, No Iterations 7
smoothSolver:  Solving for Uz, Initial residual = 0.0694507, Final residual = 0.00647697, No Iterations 7
GAMG:  Solving for p, Initial residual = 0.060643, Final residual = 0.000573886, No Iterations 8
GAMG:  Solving for p, Initial residual = 0.0052054, Final residual = 4.61579e-05, No Iterations 14
GAMG:  Solving for p, Initial residual = 0.00058225, Final residual = 5.38156e-06, No Iterations 17
time step continuity errors : sum local = 0.000183066, global = 2.18646e-06, cumulative = -0.000206404
smoothSolver:  Solving for omega, Initial residual = 0.000619788, Final residual = 4.38921e-05, No Iterations 3
smoothSolver:  Solving for k, Initial residual = 0.0131447, Final residual = 0.00103541, No Iterations 3
ExecutionTime = 109.18 s  ClockTime = 123 s

forces forces write:
    Sum of forces
        Total    : (0.490787 0.00589961 0.192127)
        Pressure : (0.448129 0.00602772 0.191765)
        Viscous  : (0.042658 -0.000128106 0.000361583)
    Sum of moments
        Total    : (0.00123254 -1.92482 0.0670478)
        Pressure : (0.00124914 -1.92374 0.0681739)
        Viscous  : (-1.66049e-05 -0.00108006 -0.00112615)
    writing force and moment files.

Time = 51

smoothSolver:  Solving for Ux, Initial residual = 0.0159099, Final residual = 0.00126739, No Iterations 7
smoothSolver:  Solving for Uy, Initial residual = 0.0882465, Final residual = 0.00862618, No Iterations 7
smoothSolver:  Solving for Uz, Initial residual = 0.0667693, Final residual = 0.00637138, No Iterations 7
GAMG:  Solving for p, Initial residual = 0.0588464, Final residual = 0.000571413, No Iterations 8
GAMG:  Solving for p, Initial residual = 0.00508184, Final residual = 4.78775e-05, No Iterations 14
GAMG:  Solving for p, Initial residual = 0.000574118, Final residual = 5.66188e-06, No Iterations 17
time step continuity errors : sum local = 0.000184061, global = 2.25039e-06, cumulative = -0.000204153
smoothSolver:  Solving for omega, Initial residual = 0.000589405, Final residual = 4.23703e-05, No Iterations 3
smoothSolver:  Solving for k, Initial residual = 0.0126104, Final residual = 0.00103649, No Iterations 3
ExecutionTime = 111.38 s  ClockTime = 125 s

forces forces write:
    Sum of forces
        Total    : (0.485314 -0.0125529 0.188224)
        Pressure : (0.442107 -0.0120356 0.187744)
        Viscous  : (0.0432063 -0.000517274 0.000480241)
    Sum of moments
        Total    : (0.00232862 -1.8832 -0.121353)
        Pressure : (0.00232882 -1.88098 -0.116314)
        Viscous  : (-1.95986e-07 -0.00222203 -0.00503949)
    writing force and moment files.

Time = 52

smoothSolver:  Solving for Ux, Initial residual = 0.0147683, Final residual = 0.00121326, No Iterations 7
smoothSolver:  Solving for Uy, Initial residual = 0.0844139, Final residual = 0.00822807, No Iterations 7
smoothSolver:  Solving for Uz, Initial residual = 0.0643987, Final residual = 0.00627321, No Iterations 7
GAMG:  Solving for p, Initial residual = 0.0572367, Final residual = 0.000564555, No Iterations 8
GAMG:  Solving for p, Initial residual = 0.00498698, Final residual = 4.16474e-05, No Iterations 15
GAMG:  Solving for p, Initial residual = 0.0005646, Final residual = 5.64038e-06, No Iterations 17
time step continuity errors : sum local = 0.00017454, global = 2.11311e-06, cumulative = -0.00020204
smoothSolver:  Solving for omega, Initial residual = 0.000561512, Final residual = 4.09896e-05, No Iterations 3
smoothSolver:  Solving for k, Initial residual = 0.0121266, Final residual = 0.00103407, No Iterations 3
ExecutionTime = 113.58 s  ClockTime = 127 s

forces forces write:
    Sum of forces
        Total    : (0.479075 -0.0268094 0.184704)
        Pressure : (0.435533 -0.0259977 0.184107)
        Viscous  : (0.0435424 -0.00081166 0.00059736)
    Sum of moments
        Total    : (0.00315431 -1.84679 -0.267771)
        Pressure : (0.00313966 -1.84342 -0.259751)
        Viscous  : (1.46469e-05 -0.00337218 -0.00801927)
    writing force and moment files.

Time = 53

smoothSolver:  Solving for Ux, Initial residual = 0.0138286, Final residual = 0.00116218, No Iterations 7
smoothSolver:  Solving for Uy, Initial residual = 0.0809656, Final residual = 0.00786851, No Iterations 7
smoothSolver:  Solving for Uz, Initial residual = 0.062266, Final residual = 0.00617041, No Iterations 7
GAMG:  Solving for p, Initial residual = 0.0558779, Final residual = 0.000556581, No Iterations 8
GAMG:  Solving for p, Initial residual = 0.00489857, Final residual = 4.35499e-05, No Iterations 15
GAMG:  Solving for p, Initial residual = 0.000559087, Final residual = 5.02327e-06, No Iterations 18
time step continuity errors : sum local = 0.000148169, global = 1.71169e-06, cumulative = -0.000200329
smoothSolver:  Solving for omega, Initial residual = 0.000534966, Final residual = 3.95973e-05, No Iterations 3
smoothSolver:  Solving for k, Initial residual = 0.0116929, Final residual = 0.00102704, No Iterations 3
ExecutionTime = 115.82 s  ClockTime = 130 s

forces forces write:
    Sum of forces
        Total    : (0.473014 -0.0367013 0.183853)
        Pressure : (0.429123 -0.0356961 0.183149)
        Viscous  : (0.0438912 -0.00100516 0.000704106)
    Sum of moments
        Total    : (0.00366134 -1.83868 -0.370188)
        Pressure : (0.00363599 -1.83426 -0.360201)
        Viscous  : (2.53456e-05 -0.00441706 -0.00998709)
    writing force and moment files.

Time = 54

smoothSolver:  Solving for Ux, Initial residual = 0.0130515, Final residual = 0.00111496, No Iterations 7
smoothSolver:  Solving for Uy, Initial residual = 0.0777989, Final residual = 0.00754556, No Iterations 7
smoothSolver:  Solving for Uz, Initial residual = 0.0603948, Final residual = 0.00464005, No Iterations 8
GAMG:  Solving for p, Initial residual = 0.054753, Final residual = 0.000430005, No Iterations 9
GAMG:  Solving for p, Initial residual = 0.00475462, Final residual = 4.09874e-05, No Iterations 15
GAMG:  Solving for p, Initial residual = 0.000534972, Final residual = 5.04632e-06, No Iterations 18
time step continuity errors : sum local = 0.000141378, global = 1.4731e-06, cumulative = -0.000198856
smoothSolver:  Solving for omega, Initial residual = 0.00051081, Final residual = 3.81937e-05, No Iterations 3
smoothSolver:  Solving for k, Initial residual = 0.011304, Final residual = 0.00101605, No Iterations 3
ExecutionTime = 118.1 s  ClockTime = 132 s

forces forces write:
    Sum of forces
        Total    : (0.465609 -0.0417083 0.190152)
        Pressure : (0.421377 -0.040538 0.189294)
        Viscous  : (0.0442317 -0.00117024 0.000858162)
    Sum of moments
        Total    : (0.00382102 -1.90403 -0.422931)
        Pressure : (0.00378728 -1.89808 -0.41125)
        Viscous  : (3.37377e-05 -0.00595076 -0.011681)
    writing force and moment files.

Time = 55

smoothSolver:  Solving for Ux, Initial residual = 0.0124047, Final residual = 0.00107398, No Iterations 7
smoothSolver:  Solving for Uy, Initial residual = 0.0749013, Final residual = 0.00728307, No Iterations 7
smoothSolver:  Solving for Uz, Initial residual = 0.0584812, Final residual = 0.00455934, No Iterations 8
GAMG:  Solving for p, Initial residual = 0.0534906, Final residual = 0.000432753, No Iterations 9
GAMG:  Solving for p, Initial residual = 0.0046485, Final residual = 4.05039e-05, No Iterations 15
GAMG:  Solving for p, Initial residual = 0.000522441, Final residual = 5.04214e-06, No Iterations 18
time step continuity errors : sum local = 0.00013421, global = -3.44395e-07, cumulative = -0.0001992
smoothSolver:  Solving for omega, Initial residual = 0.000488933, Final residual = 3.6824e-05, No Iterations 3
smoothSolver:  Solving for k, Initial residual = 0.0109506, Final residual = 0.00100196, No Iterations 3
ExecutionTime = 120.37 s  ClockTime = 134 s

forces forces write:
    Sum of forces
        Total    : (0.459461 -0.0409126 0.200772)
        Pressure : (0.414816 -0.0396738 0.199749)
        Viscous  : (0.0446455 -0.00123879 0.00102225)
    Sum of moments
        Total    : (0.00359896 -2.01428 -0.41658)
        Pressure : (0.00356188 -2.00669 -0.404175)
        Viscous  : (3.70797e-05 -0.00759386 -0.012405)
    writing force and moment files.

Time = 56

smoothSolver:  Solving for Ux, Initial residual = 0.0118109, Final residual = 0.00103625, No Iterations 7
smoothSolver:  Solving for Uy, Initial residual = 0.0718794, Final residual = 0.00703712, No Iterations 7
smoothSolver:  Solving for Uz, Initial residual = 0.0570407, Final residual = 0.00453403, No Iterations 8
GAMG:  Solving for p, Initial residual = 0.0524461, Final residual = 0.000433728, No Iterations 9
GAMG:  Solving for p, Initial residual = 0.00454644, Final residual = 3.93711e-05, No Iterations 15
GAMG:  Solving for p, Initial residual = 0.000507641, Final residual = 5.02576e-06, No Iterations 18
time step continuity errors : sum local = 0.000126766, global = -1.80834e-06, cumulative = -0.000201008
[...]
ExecutionTime = 918.18 s  ClockTime = 961 s

forces forces write:
    Sum of forces
        Total    : (0.379003 0.000570151 0.300435)
        Pressure : (0.302373 0.000308038 0.296085)
        Viscous  : (0.0766304 0.000262113 0.00435053)
    Sum of moments
        Total    : (6.63845e-05 -3.06486 0.00572487)
        Pressure : (8.59397e-05 -3.02466 0.00307265)
        Viscous  : (-1.95551e-05 -0.0402034 0.00265222)
    writing force and moment files.

fieldAverage fieldAverage write:
    Calculating averages

Time = 488

smoothSolver:  Solving for Ux, Initial residual = 0.00015243, Final residual = 1.48191e-05, No Iterations 8
smoothSolver:  Solving for Uy, Initial residual = 0.000952749, Final residual = 9.01e-05, No Iterations 8
smoothSolver:  Solving for Uz, Initial residual = 0.000958594, Final residual = 8.39018e-05, No Iterations 8
GAMG:  Solving for p, Initial residual = 0.00103422, Final residual = 9.94665e-06, No Iterations 6
GAMG:  Solving for p, Initial residual = 0.000111495, Final residual = 8.38593e-07, No Iterations 8
GAMG:  Solving for p, Initial residual = 1.09177e-05, Final residual = 8.6181e-08, No Iterations 10
time step continuity errors : sum local = 8.25786e-07, global = 2.99783e-08, cumulative = -0.000216747
smoothSolver:  Solving for omega, Initial residual = 9.63493e-06, Final residual = 7.68639e-07, No Iterations 3
smoothSolver:  Solving for k, Initial residual = 0.000116012, Final residual = 1.03751e-05, No Iterations 3
ExecutionTime = 919.91 s  ClockTime = 962 s

forces forces write:
    Sum of forces
        Total    : (0.379031 0.000208697 0.300749)
        Pressure : (0.302394 -5.37311e-05 0.296402)
        Viscous  : (0.0766371 0.000262428 0.00434723)
    Sum of moments
        Total    : (7.72817e-05 -3.06805 0.00204588)
        Pressure : (9.72464e-05 -3.02789 -0.000610038)
        Viscous  : (-1.99647e-05 -0.0401693 0.00265591)
    writing force and moment files.

fieldAverage fieldAverage write:
    Calculating averages

Time = 489

smoothSolver:  Solving for Ux, Initial residual = 0.000152995, Final residual = 1.47736e-05, No Iterations 8
smoothSolver:  Solving for Uy, Initial residual = 0.000954697, Final residual = 9.0281e-05, No Iterations 8
smoothSolver:  Solving for Uz, Initial residual = 0.000962277, Final residual = 8.43093e-05, No Iterations 8
GAMG:  Solving for p, Initial residual = 0.0010327, Final residual = 9.93856e-06, No Iterations 6
GAMG:  Solving for p, Initial residual = 0.000109663, Final residual = 1.05461e-06, No Iterations 7
GAMG:  Solving for p, Initial residual = 1.08731e-05, Final residual = 9.04454e-08, No Iterations 10
time step continuity errors : sum local = 8.66463e-07, global = 2.92254e-08, cumulative = -0.000216718
smoothSolver:  Solving for omega, Initial residual = 9.51285e-06, Final residual = 7.58801e-07, No Iterations 3
smoothSolver:  Solving for k, Initial residual = 0.000118306, Final residual = 1.06726e-05, No Iterations 3
ExecutionTime = 921.58 s  ClockTime = 964 s

forces forces write:
    Sum of forces
        Total    : (0.379046 -0.000103593 0.301072)
        Pressure : (0.302407 -0.000364487 0.296728)
        Viscous  : (0.07664 0.000260894 0.00434409)
    Sum of moments
        Total    : (8.47421e-05 -3.07134 -0.00113499)
        Pressure : (0.000104957 -3.0312 -0.00377591)
        Viscous  : (-2.02148e-05 -0.0401374 0.00264093)
    writing force and moment files.

fieldAverage fieldAverage write:
    Calculating averages

Time = 490

smoothSolver:  Solving for Ux, Initial residual = 0.000153535, Final residual = 1.47152e-05, No Iterations 8
smoothSolver:  Solving for Uy, Initial residual = 0.000955709, Final residual = 9.03847e-05, No Iterations 8
smoothSolver:  Solving for Uz, Initial residual = 0.000968293, Final residual = 8.49896e-05, No Iterations 8
GAMG:  Solving for p, Initial residual = 0.00103143, Final residual = 9.87416e-06, No Iterations 6
GAMG:  Solving for p, Initial residual = 0.000107798, Final residual = 9.8431e-07, No Iterations 7
GAMG:  Solving for p, Initial residual = 1.06183e-05, Final residual = 9.2294e-08, No Iterations 10
time step continuity errors : sum local = 8.8397e-07, global = -4.88596e-08, cumulative = -0.000216767
smoothSolver:  Solving for omega, Initial residual = 9.36452e-06, Final residual = 7.47582e-07, No Iterations 3
smoothSolver:  Solving for k, Initial residual = 0.000120966, Final residual = 1.09868e-05, No Iterations 3
ExecutionTime = 923.24 s  ClockTime = 966 s

forces forces write:
    Sum of forces
        Total    : (0.379047 -0.000370433 0.301343)
        Pressure : (0.302409 -0.000627444 0.297002)
        Viscous  : (0.0766385 0.000257011 0.00434118)
    Sum of moments
        Total    : (8.9373e-05 -3.0741 -0.00385441)
        Pressure : (0.000109627 -3.03399 -0.00645664)
        Viscous  : (-2.02542e-05 -0.0401082 0.00260223)
    writing force and moment files.

fieldAverage fieldAverage write:
    Calculating averages

Time = 491

smoothSolver:  Solving for Ux, Initial residual = 0.000153972, Final residual = 1.4652e-05, No Iterations 8
smoothSolver:  Solving for Uy, Initial residual = 0.000957937, Final residual = 9.04825e-05, No Iterations 8
smoothSolver:  Solving for Uz, Initial residual = 0.000978823, Final residual = 8.57842e-05, No Iterations 8
GAMG:  Solving for p, Initial residual = 0.0010327, Final residual = 9.77213e-06, No Iterations 6
GAMG:  Solving for p, Initial residual = 0.00010624, Final residual = 9.7225e-07, No Iterations 7
GAMG:  Solving for p, Initial residual = 1.04361e-05, Final residual = 8.32369e-08, No Iterations 10
time step continuity errors : sum local = 7.97049e-07, global = 2.47856e-08, cumulative = -0.000216742
smoothSolver:  Solving for omega, Initial residual = 9.21067e-06, Final residual = 7.34844e-07, No Iterations 3
smoothSolver:  Solving for k, Initial residual = 0.000123877, Final residual = 1.13098e-05, No Iterations 3
ExecutionTime = 924.91 s  ClockTime = 968 s

forces forces write:
    Sum of forces
        Total    : (0.37903 -0.000598251 0.301513)
        Pressure : (0.302396 -0.000849357 0.297175)
        Viscous  : (0.0766338 0.000251106 0.00433827)
    Sum of moments
        Total    : (9.20918e-05 -3.07582 -0.00617645)
        Pressure : (0.000112198 -3.03574 -0.00871963)
        Viscous  : (-2.01063e-05 -0.0400793 0.00254318)
    writing force and moment files.

fieldAverage fieldAverage write:
    Calculating averages

Time = 492

smoothSolver:  Solving for Ux, Initial residual = 0.000154288, Final residual = 1.46034e-05, No Iterations 8
smoothSolver:  Solving for Uy, Initial residual = 0.000960117, Final residual = 9.06335e-05, No Iterations 8
smoothSolver:  Solving for Uz, Initial residual = 0.000989675, Final residual = 8.63742e-05, No Iterations 8
GAMG:  Solving for p, Initial residual = 0.00103391, Final residual = 9.77121e-06, No Iterations 6
GAMG:  Solving for p, Initial residual = 0.000105047, Final residual = 1.04429e-06, No Iterations 7
GAMG:  Solving for p, Initial residual = 1.03586e-05, Final residual = 8.91054e-08, No Iterations 10
time step continuity errors : sum local = 8.53082e-07, global = 3.42568e-10, cumulative = -0.000216742
smoothSolver:  Solving for omega, Initial residual = 9.04971e-06, Final residual = 7.21744e-07, No Iterations 3
smoothSolver:  Solving for k, Initial residual = 0.000126596, Final residual = 1.16085e-05, No Iterations 3
ExecutionTime = 926.62 s  ClockTime = 969 s

forces forces write:
    Sum of forces
        Total    : (0.378988 -0.000791165 0.301552)
        Pressure : (0.302363 -0.00103462 0.297217)
        Viscous  : (0.076625 0.000243453 0.00433526)
    Sum of moments
        Total    : (9.3661e-05 -3.07621 -0.00814176)
        Pressure : (0.000113448 -3.03616 -0.0106083)
        Viscous  : (-1.97873e-05 -0.0400498 0.00246658)
    writing force and moment files.

fieldAverage fieldAverage write:
    Calculating averages

Time = 493

smoothSolver:  Solving for Ux, Initial residual = 0.000154666, Final residual = 1.45863e-05, No Iterations 8
smoothSolver:  Solving for Uy, Initial residual = 0.000961935, Final residual = 9.07879e-05, No Iterations 8
smoothSolver:  Solving for Uz, Initial residual = 0.000998065, Final residual = 8.64665e-05, No Iterations 8
GAMG:  Solving for p, Initial residual = 0.00103448, Final residual = 9.8539e-06, No Iterations 6
GAMG:  Solving for p, Initial residual = 0.000104133, Final residual = 8.15057e-07, No Iterations 8
GAMG:  Solving for p, Initial residual = 1.00741e-05, Final residual = 8.55997e-08, No Iterations 10
time step continuity errors : sum local = 8.19403e-07, global = 1.28449e-08, cumulative = -0.000216729
smoothSolver:  Solving for omega, Initial residual = 8.87882e-06, Final residual = 7.09972e-07, No Iterations 3
smoothSolver:  Solving for k, Initial residual = 0.000128882, Final residual = 1.1874e-05, No Iterations 3
ExecutionTime = 928.3 s  ClockTime = 971 s

forces forces write:
    Sum of forces
        Total    : (0.378921 -0.000946993 0.301455)
        Pressure : (0.302308 -0.00118127 0.297124)
        Viscous  : (0.0766128 0.000234282 0.00433164)
    Sum of moments
        Total    : (9.43041e-05 -3.07522 -0.00972738)
        Pressure : (0.000113617 -3.0352 -0.0121022)
        Viscous  : (-1.93132e-05 -0.0400145 0.00237482)
    writing force and moment files.

fieldAverage fieldAverage write:
    Calculating averages

Time = 494

smoothSolver:  Solving for Ux, Initial residual = 0.000154704, Final residual = 1.4579e-05, No Iterations 8
smoothSolver:  Solving for Uy, Initial residual = 0.000964328, Final residual = 9.0872e-05, No Iterations 8
smoothSolver:  Solving for Uz, Initial residual = 0.00100295, Final residual = 8.59532e-05, No Iterations 8
GAMG:  Solving for p, Initial residual = 0.00103386, Final residual = 9.94624e-06, No Iterations 6
GAMG:  Solving for p, Initial residual = 0.00010316, Final residual = 8.12888e-07, No Iterations 8
GAMG:  Solving for p, Initial residual = 9.9062e-06, Final residual = 9.83831e-08, No Iterations 10
time step continuity errors : sum local = 9.41672e-07, global = 9.84954e-09, cumulative = -0.000216719
smoothSolver:  Solving for omega, Initial residual = 8.72357e-06, Final residual = 7.00611e-07, No Iterations 3
smoothSolver:  Solving for k, Initial residual = 0.000130694, Final residual = 1.2102e-05, No Iterations 3
ExecutionTime = 930.02 s  ClockTime = 973 s

forces forces write:
    Sum of forces
        Total    : (0.378828 -0.00106174 0.301248)
        Pressure : (0.302231 -0.00128548 0.296921)
        Viscous  : (0.0765974 0.000223737 0.00432768)
    Sum of moments
        Total    : (9.4119e-05 -3.07309 -0.0108923)
        Pressure : (0.000112807 -3.03312 -0.0131617)
        Viscous  : (-1.86881e-05 -0.0399759 0.00226938)
    writing force and moment files.

fieldAverage fieldAverage write:
    Calculating averages

Time = 495

smoothSolver:  Solving for Ux, Initial residual = 0.00015452, Final residual = 1.45429e-05, No Iterations 8
smoothSolver:  Solving for Uy, Initial residual = 0.000965879, Final residual = 9.05876e-05, No Iterations 8
smoothSolver:  Solving for Uz, Initial residual = 0.00100523, Final residual = 8.49553e-05, No Iterations 8
GAMG:  Solving for p, Initial residual = 0.00103159, Final residual = 9.95869e-06, No Iterations 6
GAMG:  Solving for p, Initial residual = 0.000101885, Final residual = 8.13667e-07, No Iterations 8
GAMG:  Solving for p, Initial residual = 9.7875e-06, Final residual = 9.69954e-08, No Iterations 10
time step continuity errors : sum local = 9.28317e-07, global = -2.71987e-08, cumulative = -0.000216746
smoothSolver:  Solving for omega, Initial residual = 8.60235e-06, Final residual = 6.91512e-07, No Iterations 3
smoothSolver:  Solving for k, Initial residual = 0.000132273, Final residual = 1.22839e-05, No Iterations 3
ExecutionTime = 931.67 s  ClockTime = 974 s

forces forces write:
    Sum of forces
        Total    : (0.378715 -0.00113158 0.300976)
        Pressure : (0.302136 -0.00134412 0.296653)
        Viscous  : (0.0765795 0.000212542 0.00432336)
    Sum of moments
        Total    : (9.30656e-05 -3.07031 -0.0115975)
        Pressure : (0.000111033 -3.03037 -0.0137551)
        Viscous  : (-1.79675e-05 -0.0399339 0.00215759)
    writing force and moment files.

fieldAverage fieldAverage write:
    Calculating averages

Time = 496

smoothSolver:  Solving for Ux, Initial residual = 0.000154023, Final residual = 1.44683e-05, No Iterations 8
smoothSolver:  Solving for Uy, Initial residual = 0.000964058, Final residual = 8.98482e-05, No Iterations 8
smoothSolver:  Solving for Uz, Initial residual = 0.00100508, Final residual = 8.38749e-05, No Iterations 8
GAMG:  Solving for p, Initial residual = 0.00102854, Final residual = 9.86876e-06, No Iterations 6
GAMG:  Solving for p, Initial residual = 0.000100125, Final residual = 7.76367e-07, No Iterations 8
GAMG:  Solving for p, Initial residual = 9.55673e-06, Final residual = 9.66582e-08, No Iterations 10
time step continuity errors : sum local = 9.25031e-07, global = -5.02112e-08, cumulative = -0.000216796
smoothSolver:  Solving for omega, Initial residual = 8.46485e-06, Final residual = 6.82997e-07, No Iterations 3
smoothSolver:  Solving for k, Initial residual = 0.000133899, Final residual = 1.24623e-05, No Iterations 3
ExecutionTime = 933.34 s  ClockTime = 976 s

forces forces write:
    Sum of forces
        Total    : (0.378587 -0.00115761 0.300696)
        Pressure : (0.302027 -0.00135868 0.296377)
        Viscous  : (0.0765599 0.000201066 0.00431908)
    Sum of moments
        Total    : (9.1264e-05 -3.06744 -0.0118545)
        Pressure : (0.000108441 -3.02755 -0.0138976)
        Viscous  : (-1.71769e-05 -0.0398924 0.00204313)
    writing force and moment files.

fieldAverage fieldAverage write:
    Calculating averages

Time = 497

smoothSolver:  Solving for Ux, Initial residual = 0.000153181, Final residual = 1.4345e-05, No Iterations 8
smoothSolver:  Solving for Uy, Initial residual = 0.000958148, Final residual = 8.8566e-05, No Iterations 8
smoothSolver:  Solving for Uz, Initial residual = 0.00100332, Final residual = 8.29816e-05, No Iterations 8
GAMG:  Solving for p, Initial residual = 0.00102447, Final residual = 9.68587e-06, No Iterations 6
GAMG:  Solving for p, Initial residual = 9.81172e-05, Final residual = 7.48051e-07, No Iterations 8
GAMG:  Solving for p, Initial residual = 9.33585e-06, Final residual = 9.41283e-08, No Iterations 10
time step continuity errors : sum local = 9.00762e-07, global = -4.16471e-08, cumulative = -0.000216838
smoothSolver:  Solving for omega, Initial residual = 8.32597e-06, Final residual = 6.74461e-07, No Iterations 3
smoothSolver:  Solving for k, Initial residual = 0.000135741, Final residual = 1.26598e-05, No Iterations 3
ExecutionTime = 935.05 s  ClockTime = 978 s

forces forces write:
    Sum of forces
        Total    : (0.378452 -0.00114214 0.300462)
        Pressure : (0.301912 -0.00133224 0.296147)
        Viscous  : (0.0765407 0.000190105 0.00431514)
    Sum of moments
        Total    : (8.86921e-05 -3.06505 -0.0116869)
        Pressure : (0.000105075 -3.0252 -0.0136209)
        Viscous  : (-1.63824e-05 -0.0398545 0.00193402)
    writing force and moment files.

fieldAverage fieldAverage write:
    Calculating averages

Time = 498

smoothSolver:  Solving for Ux, Initial residual = 0.000151822, Final residual = 1.41456e-05, No Iterations 8
smoothSolver:  Solving for Uy, Initial residual = 0.000950136, Final residual = 8.6903e-05, No Iterations 8
smoothSolver:  Solving for Uz, Initial residual = 0.000998124, Final residual = 8.21388e-05, No Iterations 8
GAMG:  Solving for p, Initial residual = 0.00101931, Final residual = 9.47239e-06, No Iterations 6
GAMG:  Solving for p, Initial residual = 9.60467e-05, Final residual = 7.14066e-07, No Iterations 8
GAMG:  Solving for p, Initial residual = 9.0728e-06, Final residual = 8.92265e-08, No Iterations 10
time step continuity errors : sum local = 8.53798e-07, global = -2.5659e-08, cumulative = -0.000216864
smoothSolver:  Solving for omega, Initial residual = 8.17086e-06, Final residual = 6.65589e-07, No Iterations 3
smoothSolver:  Solving for k, Initial residual = 0.000137454, Final residual = 1.28459e-05, No Iterations 3
ExecutionTime = 936.75 s  ClockTime = 979 s

forces forces write:
    Sum of forces
        Total    : (0.378318 -0.00109532 0.30032)
        Pressure : (0.301797 -0.00127466 0.296008)
        Viscous  : (0.076521 0.000179346 0.00431183)
    Sum of moments
        Total    : (8.57389e-05 -3.0636 -0.0111986)
        Pressure : (0.000101299 -3.02378 -0.0130256)
        Viscous  : (-1.55604e-05 -0.0398231 0.00182702)
    writing force and moment files.

fieldAverage fieldAverage write:
    Calculating averages

Time = 499

smoothSolver:  Solving for Ux, Initial residual = 0.000149974, Final residual = 1.38882e-05, No Iterations 8
smoothSolver:  Solving for Uy, Initial residual = 0.000940571, Final residual = 8.5169e-05, No Iterations 8
smoothSolver:  Solving for Uz, Initial residual = 0.000989111, Final residual = 8.12054e-05, No Iterations 8
GAMG:  Solving for p, Initial residual = 0.00101123, Final residual = 9.35161e-06, No Iterations 6
GAMG:  Solving for p, Initial residual = 9.41965e-05, Final residual = 7.32926e-07, No Iterations 8
GAMG:  Solving for p, Initial residual = 8.91109e-06, Final residual = 9.29812e-08, No Iterations 10
time step continuity errors : sum local = 8.89663e-07, global = -4.16614e-08, cumulative = -0.000216905
smoothSolver:  Solving for omega, Initial residual = 8.00802e-06, Final residual = 6.55577e-07, No Iterations 3
smoothSolver:  Solving for k, Initial residual = 0.000138693, Final residual = 1.2979e-05, No Iterations 3
ExecutionTime = 938.46 s  ClockTime = 981 s

forces forces write:
    Sum of forces
        Total    : (0.378192 -0.00102724 0.300287)
        Pressure : (0.30169 -0.00119644 0.295978)
        Viscous  : (0.0765028 0.000169198 0.00430908)
    Sum of moments
        Total    : (8.25377e-05 -3.06328 -0.0104927)
        Pressure : (9.72939e-05 -3.02348 -0.0122189)
        Viscous  : (-1.47562e-05 -0.0397973 0.0017262)
    writing force and moment files.

fieldAverage fieldAverage write:
    Calculating averages

Time = 500

smoothSolver:  Solving for Ux, Initial residual = 0.000147886, Final residual = 1.3603e-05, No Iterations 8
smoothSolver:  Solving for Uy, Initial residual = 0.000929679, Final residual = 8.36404e-05, No Iterations 8
smoothSolver:  Solving for Uz, Initial residual = 0.000976224, Final residual = 8.01408e-05, No Iterations 8
GAMG:  Solving for p, Initial residual = 0.000999757, Final residual = 9.35473e-06, No Iterations 6
GAMG:  Solving for p, Initial residual = 9.26387e-05, Final residual = 7.77999e-07, No Iterations 8
GAMG:  Solving for p, Initial residual = 8.86131e-06, Final residual = 9.30837e-08, No Iterations 10
time step continuity errors : sum local = 8.9057e-07, global = -3.05496e-08, cumulative = -0.000216936
smoothSolver:  Solving for omega, Initial residual = 7.81133e-06, Final residual = 6.44627e-07, No Iterations 3
smoothSolver:  Solving for k, Initial residual = 0.000139038, Final residual = 1.30358e-05, No Iterations 3
ExecutionTime = 940.26 s  ClockTime = 983 s

--> FOAM Warning : 
    From Foam::IOobjectList Foam::sampledSurfaces::preCheckFields()
    in file sampledSurface/sampledSurfaces/sampledSurfaces.C at line 112
    
Cannot find registered field matching 1(kMean)
forces forces write:
    Sum of forces
        Total    : (0.378078 -0.000953501 0.30036)
        Pressure : (0.301593 -0.00111254 0.296053)
        Viscous  : (0.0764855 0.000159036 0.00430696)
    Sum of moments
        Total    : (7.96039e-05 -3.06403 -0.0097288)
        Pressure : (9.3526e-05 -3.02425 -0.011354)
        Viscous  : (-1.39221e-05 -0.0397778 0.00162516)
    writing force and moment files.

fieldAverage fieldAverage write:
    Calculating averages

    Writing average fields

End

Finalising parallel run
