/*---------------------------------------------------------------------------*\
| =========                 |                                                 |
| \\      /  F ield         | OpenFOAM: The Open Source CFD Toolbox           |
|  \\    /   O peration     | Version:  2406                                  |
|   \\  /    A nd           | Website:  www.openfoam.com                      |
|    \\/     M anipulation  |                                                 |
\*---------------------------------------------------------------------------*/
Build  : _630d60de3b-20240620 OPENFOAM=2406 version=v2406
Arch   : "LSB;label=32;scalar=64"
Exec   : snappyHexMesh -overwrite -parallel
Date   : Nov 21 2024
Time   : 17:22:55
Host   : MacBook-Air-de-Denis.local
PID    : 71010
I/O    : uncollated
Case   : /Users/df/Documents/3A/POLI48/OpenFoamSim/ahmedBetterHole
nProcs : 4
Hosts  :
(
    (MacBook-Air-de-Denis.local 4)
)
Pstream initialized with:
    floatTransfer      : false
    maxCommsSize       : 0
    nProcsSimpleSum    : 0
    nonBlockingExchange: 0 (tuning: 0)
    exchange algorithm : 0
    commsType          : nonBlocking
    polling iterations : 0
trapFpe: Floating point exception trapping enabled (FOAM_SIGFPE).
fileModificationChecking : Monitoring run-time modified files using timeStampMaster (fileModificationSkew 5, maxFileModificationPolls 20)
allowSystemOperations : Allowing user-supplied system call operations

// * * * * * * * * * * * * * * * * * * * * * * * * * * * * * * * * * * * * * //
Create time

Create mesh for time = 0

Read mesh in = 0.01 s

Overall mesh bounding box  : (-1.3 -0.25 -0.0218) (3 0.25 0.4782)
Relative tolerance         : 1e-06
Absolute matching distance : 4.35775e-06

Reading refinement surfaces.
Read refinement surfaces in = 0 s

Reading refinement shells.
Refinement level 1 for all cells inside refinementBox1
Refinement level 2 for all cells inside refinementBox2
Refinement level 3 for all cells inside refinementBox3
Read refinement shells in = 0 s

Setting refinement level of surface to be consistent with shells.
For geometry ahmedBody.stl detected 0 uncached triangles out of 4030
Checked shell refinement in = 0.01 s

Reading features.
Read edgeMesh ahmedBody.eMesh
    points      : 510
    edges       : 554
    boundingBox : (0.00156791 -0.0537754 0) (0.288109 0.0537754 0.112767)

Refinement level according to distance to "ahmedBody.eMesh" (510 points, 554 edges).
    level 3 for all cells within 0 metre.
Read features in = 0 s


Determining initial surface intersections
-----------------------------------------

Edge intersection testing:
    Number of edges             : 131835
    Number of edges to retest   : 0
    Number of intersected edges : 0
Edge intersection testing:
    Number of edges             : 131835
    Number of edges to retest   : 131835
    Number of intersected edges : 150
Calculated surface intersections in = 0.03 s

Initial mesh : cells:42194  faces:131835  points:47628  unbalance:0.00952742
Cells per refinement level:
    0	42194
Setting refinement level of surface to be consistent with curvature.
Checked curvature refinement in = 0 s


Adding patches for surface regions
----------------------------------

Patch Type                Region                        
----- ----                ------                        
ahmedBody:

5     wall                ahmedBody                     

Added patches in = 0.01 s

Edge intersection testing:
    Number of edges             : 131835
    Number of edges to retest   : 0
    Number of intersected edges : 150
Decomposition method scotch [4]

Refinement phase
----------------

Found point (-1.001 -0.201 0.201) in cell 4374 on processor 2

Feature refinement iteration 0
------------------------------

Marked for refinement due to explicit features             : 87 cells.
Determined cells to refine in = 0.07 s
Selected for feature refinement : 87 cells (out of 42194)
Edge intersection testing:
    Number of edges             : 134094
    Number of edges to retest   : 3403
    Number of intersected edges : 706
Refined mesh in = 0.02 s
After refinement feature refinement iteration 0 : cells:42803  faces:134094  points:48722  unbalance:0.0520758
Cells per refinement level:
    0	42107
    1	696
Skipping balancing since max unbalance 0.0520758 is less than allowable 0.1

Feature refinement iteration 1
------------------------------

Marked for refinement due to explicit features             : 176 cells.
Determined cells to refine in = 0.08 s
Selected for feature refinement : 298 cells (out of 42803)
Edge intersection testing:
    Number of edges             : 141537
    Number of edges to retest   : 10974
    Number of intersected edges : 1656
Refined mesh in = 0.04 s
After refinement feature refinement iteration 1 : cells:44889  faces:141537  points:52112  unbalance:0.189066
Cells per refinement level:
    0	41985
    1	1496
    2	1408
Balancing since max unbalance 0.189066 is larger than allowable 0.1
Balanced mesh in = 0.21 s
After balancing feature refinement iteration 1 : cells:44889  faces:141537  points:52112  unbalance:0.0084876
Cells per refinement level:
    0	41985
    1	1496
    2	1408

Feature refinement iteration 2
------------------------------

Marked for refinement due to explicit features             : 390 cells.
Determined cells to refine in = 0.08 s
Selected for feature refinement : 771 cells (out of 44889)
Edge intersection testing:
    Number of edges             : 160851
    Number of edges to retest   : 29099
    Number of intersected edges : 3461
Refined mesh in = 0.05 s
After refinement feature refinement iteration 2 : cells:50286  faces:160851  points:60962  unbalance:0.314402
Cells per refinement level:
    0	41906
    1	1826
    2	3434
    3	3120
Balancing since max unbalance 0.314402 is larger than allowable 0.1
Balanced mesh in = 0.21 s
After balancing feature refinement iteration 2 : cells:50286  faces:160851  points:60962  unbalance:0.00990335
Cells per refinement level:
    0	41906
    1	1826
    2	3434
    3	3120

Feature refinement iteration 3
------------------------------

Marked for refinement due to explicit features             : 0 cells.
Determined cells to refine in = 0.09 s
Selected for feature refinement : 0 cells (out of 50286)
Stopping refining since too few cells selected.


Surface refinement iteration 0
------------------------------

Marked for refinement due to surface intersection          : 3700 cells.
Determined cells to refine in = 0 s
Selected for refinement : 4144 cells (out of 50286)
Edge intersection testing:
    Number of edges             : 257157
    Number of edges to retest   : 124396
    Number of intersected edges : 12608
Refined mesh in = 0.17 s
After refinement surface refinement iteration 0 : cells:79294  faces:257157  points:99636  unbalance:1.09721
Cells per refinement level:
    0	41806
    1	1858
    2	7964
    3	14370
    4	13296
Balancing since max unbalance 1.09721 is larger than allowable 0.1
Balanced mesh in = 0.43 s
After balancing surface refinement iteration 0 : cells:79294  faces:257157  points:99636  unbalance:0.0100134
Cells per refinement level:
    0	41806
    1	1858
    2	7964
    3	14370
    4	13296

Surface refinement iteration 1
------------------------------

Marked for refinement due to surface intersection          : 8458 cells.
Determined cells to refine in = 0.01 s
Selected for refinement : 8975 cells (out of 79294)
Edge intersection testing:
    Number of edges             : 459108
    Number of edges to retest   : 291141
    Number of intersected edges : 26748
Refined mesh in = 0.22 s
After refinement surface refinement iteration 1 : cells:142119  faces:459108  points:175649  unbalance:0.440511
Cells per refinement level:
    0	41801
    1	1596
    2	7464
    3	31946
    4	59312
Balancing since max unbalance 0.440511 is larger than allowable 0.1
Balanced mesh in = 0.72 s
After balancing surface refinement iteration 1 : cells:142119  faces:459108  points:175649  unbalance:0.00975943
Cells per refinement level:
    0	41801
    1	1596
    2	7464
    3	31946
    4	59312

Surface refinement iteration 2
------------------------------

Marked for refinement due to surface intersection          : 11482 cells.
Determined cells to refine in = 0.02 s
Selected for refinement : 12351 cells (out of 142119)
Edge intersection testing:
    Number of edges             : 732258
    Number of edges to retest   : 385412
    Number of intersected edges : 44636
Refined mesh in = 0.26 s
After refinement surface refinement iteration 2 : cells:228576  faces:732258  points:275413  unbalance:0.38431
Cells per refinement level:
    0	41800
    1	1534
    2	6732
    3	31294
    4	147216
Balancing since max unbalance 0.38431 is larger than allowable 0.1
Balanced mesh in = 0.99 s
After balancing surface refinement iteration 2 : cells:228576  faces:732258  points:275413  unbalance:0.0097648
Cells per refinement level:
    0	41800
    1	1534
    2	6732
    3	31294
    4	147216

Surface refinement iteration 3
------------------------------

Marked for refinement due to surface intersection          : 2086 cells.
Determined cells to refine in = 0.01 s
Selected for refinement : 2156 cells (out of 228576)
Edge intersection testing:
    Number of edges             : 779268
    Number of edges to retest   : 78738
    Number of intersected edges : 47686
Refined mesh in = 0.23 s
After refinement surface refinement iteration 3 : cells:243668  faces:779268  points:292099  unbalance:0.0365744
Cells per refinement level:
    0	41800
    1	1524
    2	6752
    3	29688
    4	163904
Skipping balancing since max unbalance 0.0365744 is less than allowable 0.1

Surface refinement iteration 4
------------------------------

Marked for refinement due to surface intersection          : 0 cells.
Determined cells to refine in = 0.02 s
Selected for refinement : 0 cells (out of 243668)
Stopping refining since too few cells selected.


Removing mesh beyond surface intersections
------------------------------------------

Setting cellZones according to locationsInMesh:
Location : (-1.001 -0.201 0.201)
    cellZone : none

For cellZone none found point (-1.001 -0.201 0.201) in global region 2 out of 7 regions.
--> FOAM Warning : 
    From void Foam::meshRefinement::nearestFace(const labelUList &, const bitSet &, autoPtr<mapDistribute> &, labelList &, const label) const
    in file meshRefinement/meshRefinement.C at line 515
    Did not visit some faces, e.g. face 229 at (0.0253425 -0.117647 -0.00709412)
Keeping all cells containing inside points
Selected for keeping : 205550 cells.
Edge intersection testing:
    Number of edges             : 668051
    Number of edges to retest   : 43888
    Number of intersected edges : 47686

Shell refinement iteration 0
----------------------------

Marked for refinement due to distance to explicit features : 0 cells.
Marked for refinement due to refinement shells             : 12307 cells.
Determined cells to refine in = 0.22 s
Selected for internal refinement : 18224 cells (out of 205550)
Edge intersection testing:
    Number of edges             : 1057481
    Number of edges to retest   : 595131
    Number of intersected edges : 47686
Refined mesh in = 0.37 s
After refinement shell refinement iteration 0 : cells:333118  faces:1057481  points:391355  unbalance:0.248026
Cells per refinement level:
    0	35297
    1	52024
    2	10848
    3	46193
    4	188756
Balancing since max unbalance 0.248026 is larger than allowable 0.1
Balanced mesh in = 1.19 s
After balancing shell refinement iteration 0 : cells:333118  faces:1057481  points:391355  unbalance:0.00948012
Cells per refinement level:
    0	35297
    1	52024
    2	10848
    3	46193
    4	188756

Shell refinement iteration 1
----------------------------

Marked for refinement due to distance to explicit features : 0 cells.
Marked for refinement due to refinement shells             : 22064 cells.
Determined cells to refine in = 0.05 s
Selected for internal refinement : 22219 cells (out of 333118)
Edge intersection testing:
    Number of edges             : 1530986
    Number of edges to retest   : 623966
    Number of intersected edges : 47686
Refined mesh in = 0.55 s
After refinement shell refinement iteration 1 : cells:488651  faces:1530986  points:553853  unbalance:0.445342
Cells per refinement level:
    0	35297
    1	36680
    2	126880
    3	99798
    4	189996
Balancing since max unbalance 0.445342 is larger than allowable 0.1
Balanced mesh in = 1.71 s
After balancing shell refinement iteration 1 : cells:488651  faces:1530986  points:553853  unbalance:0.00389849
Cells per refinement level:
    0	35297
    1	36680
    2	126880
    3	99798
    4	189996

Shell refinement iteration 2
----------------------------

Marked for refinement due to distance to explicit features : 0 cells.
Marked for refinement due to refinement shells             : 22956 cells.
Determined cells to refine in = 0.07 s
Selected for internal refinement : 22956 cells (out of 488651)
Edge intersection testing:
    Number of edges             : 2018210
    Number of edges to retest   : 610162
    Number of intersected edges : 47686
Refined mesh in = 0.68 s
After refinement shell refinement iteration 2 : cells:649343  faces:2018210  points:719724  unbalance:0.214138
Cells per refinement level:
    0	35297
    1	36680
    2	103924
    3	283446
    4	189996
Balancing since max unbalance 0.214138 is larger than allowable 0.1
Balanced mesh in = 2.46 s
After balancing shell refinement iteration 2 : cells:649343  faces:2018210  points:719724  unbalance:0.00780635
Cells per refinement level:
    0	35297
    1	36680
    2	103924
    3	283446
    4	189996

Shell refinement iteration 3
----------------------------

Marked for refinement due to distance to explicit features : 0 cells.
Marked for refinement due to refinement shells             : 0 cells.
Determined cells to refine in = 0.12 s
Selected for internal refinement : 0 cells (out of 649343)
Stopping refining since too few cells selected.


Dangling coarse cells refinement iteration 0
--------------------------------------------

Determined cells to refine in = 0 s
Selected for refinement : 0 cells (out of 649343)
Stopping refining since too few cells selected.


Dangling coarse cells refinement iteration 0
--------------------------------------------

Determined cells to refine in = 0.01 s
Selected for refinement : 0 cells (out of 649343)
Stopping refining since too few cells selected.


Refinement transition refinement iteration 0
--------------------------------------------

Determined cells to refine in = 0 s
Selected for refinement : 0 cells (out of 649343)
Stopping refining since too few cells selected.


Splitting mesh at surface intersections
---------------------------------------

Introducing baffles for 47686 faces that are intersected by the surface.

Setting cellZones according to locationsInMesh:
Location : (-1.001 -0.201 0.201)
    cellZone : none

For cellZone none found point (-1.001 -0.201 0.201) in global region 0 out of 11 regions.
Edge intersection testing:
    Number of edges             : 2065896
    Number of edges to retest   : 349128
    Number of intersected edges : 95372
Created baffles in = 0.51 s


After introducing baffles : cells:649343  faces:2065896  points:719724  unbalance:0.00780635
Cells per refinement level:
    0	35297
    1	36680
    2	103924
    3	283446
    4	189996

Introducing baffles to block off problem cells
----------------------------------------------

markFacesOnProblemCells : marked 90282 additional internal faces to be converted into baffles.
Analyzed problem cells in = 0.33 s


Introducing baffles to delete problem cells.

Edge intersection testing:
    Number of edges             : 2155514
    Number of edges to retest   : 272444
    Number of intersected edges : 95372
Created baffles in = 0.44 s


After introducing baffles : cells:649343  faces:2155514  points:720464  unbalance:0.00780635
Cells per refinement level:
    0	35297
    1	36680
    2	103924
    3	283446
    4	189996
Setting cellZones according to locationsInMesh:
Location : (-1.001 -0.201 0.201)
    cellZone : none

For cellZone none found point (-1.001 -0.201 0.201) in global region 0 out of 44664 regions.
Edge intersection testing:
    Number of edges             : 2155514
    Number of edges to retest   : 428408
    Number of intersected edges : 95372

Remove unreachable sections of mesh
-----------------------------------

Keeping all cells containing points 1((-1.001 -0.201 0.201))
Selected for keeping : 599151 cells.
Edge intersection testing:
    Number of edges             : 1867406
    Number of edges to retest   : 0
    Number of intersected edges : 43956
Split mesh in = 1.15 s


After subsetting : cells:599151  faces:1867406  points:669448  unbalance:0.102049
Cells per refinement level:
    0	35297
    1	36680
    2	103924
    3	283446
    4	139804

Introducing zones for interfaces
--------------------------------

Setting cellZones according to locationsInMesh:
Location : (-1.001 -0.201 0.201)
    cellZone : none

For cellZone none found point (-1.001 -0.201 0.201) in global region 0 out of 1 regions.
Setting faceZones according to neighbouring cellZones:

Edge intersection testing:
    Number of edges             : 1867406
    Number of edges to retest   : 0
    Number of intersected edges : 43956

Handling cells with snap problems
---------------------------------

Introducing baffles for 43956 faces that are intersected by the surface.

Setting cellZones according to locationsInMesh:
Location : (-1.001 -0.201 0.201)
    cellZone : none

For cellZone none found point (-1.001 -0.201 0.201) in global region 0 out of 1 regions.
Edge intersection testing:
    Number of edges             : 1867406
    Number of edges to retest   : 163561
    Number of intersected edges : 43956
Created baffles in = 0.92 s


After introducing baffles : cells:599151  faces:1867406  points:669448  unbalance:0.102049
Cells per refinement level:
    0	35297
    1	36680
    2	103924
    3	283446
    4	139804

Introducing baffles to block off problem cells
----------------------------------------------

markFacesOnProblemCells : marked 0 additional internal faces to be converted into baffles.
Analyzed problem cells in = 0.3 s


Introducing baffles to delete problem cells.

Created baffles in = 0.04 s


After introducing baffles : cells:599151  faces:1867406  points:669448  unbalance:0.102049
Cells per refinement level:
    0	35297
    1	36680
    2	103924
    3	283446
    4	139804
Setting cellZones according to locationsInMesh:
Location : (-1.001 -0.201 0.201)
    cellZone : none

For cellZone none found point (-1.001 -0.201 0.201) in global region 0 out of 1 regions.
Edge intersection testing:
    Number of edges             : 1867406
    Number of edges to retest   : 163561
    Number of intersected edges : 43956

Remove unreachable sections of mesh
-----------------------------------

Split mesh in = 0.47 s


After subsetting : cells:599151  faces:1867406  points:669448  unbalance:0.102049
Cells per refinement level:
    0	35297
    1	36680
    2	103924
    3	283446
    4	139804

Merge free-standing baffles
---------------------------

freeStandingBaffles : detected 20 free-standing baffles out of 20

freeStandingBaffles : detected 0 planar (within 30 degrees) free-standing baffles out of 20

Detected free-standing baffles : 0
Merged free-standing baffles in = 0.1 s


dupNonManifoldPoints : Found : 19 non-manifold points (out of 682016)
Edge intersection testing:
    Number of edges             : 1867406
    Number of edges to retest   : 0
    Number of intersected edges : 43956
Detected unsplittable baffles : 0

Merge refined boundary faces
----------------------------

Merging 0 sets of faces.

No faces merged ...

Merging all points on surface that
- are used by only two boundary faces and
- make an angle with a cosine of more than 0.707107.

No straight edges simplified and no points removed ...

Doing final balancing
---------------------

Found 0 zoned faces to keep together.
Found 0 separated coupled faces to keep together.
Refined mesh : cells:599151  faces:1867406  points:669467  unbalance:0.00936158
Cells per refinement level:
    0	35297
    1	36680
    2	103924
    3	283446
    4	139804
Writing mesh to time constant
Wrote mesh in = 0.1 s.
Mesh refined in = 18.34 s.

Morphing phase
--------------

Duplicating 0 points on faceZones of type boundary
Snapping to features in 10 iterations ...
Constructing mesh displacer ...
Using mesh parameters 
{
    maxNonOrtho     65;
    maxBoundarySkewness 20;
    maxInternalSkewness 4;
    maxConcave      80;
    minVol          1e-13;
    minTetQuality   1e-15;
    minArea         -1;
    minTwist        0.02;
    minDeterminant  0.001;
    minFaceWeight   0.02;
    minVolRatio     0.01;
    minTriangleTwist -1;
    minEdgeLength   -1;
    nSmoothScale    4;
    errorReduction  0.75;
}


Checking initial mesh ...
Checking faces in error :
    non-orthogonality > 65  degrees                        : 0
    faces with face pyramid volume < 1e-13                 : 0
    faces with face-decomposition tet quality < 1e-15      : 0
    faces with concavity > 80  degrees                     : 0
    faces with skewness > 4   (internal) or 20  (boundary) : 0
    faces with interpolation weights (0..1)  < 0.02        : 0
    faces with volume ratio of neighbour cells < 0.01      : 0
    faces with face twist < 0.02                           : 0
    faces on cells with determinant < 0.001                : 0
Detected 0 illegal faces (concave, zero area or negative cell pyramid volume)
Checked initial mesh in = 3.1 s


Smoothing patch points ...
Smoothing iteration 0
Found 38 non-manifold point(s).

Scaling iteration 0
Moving mesh using displacement scaling : min:1  max:1
Checking faces in error :
    non-orthogonality > 65  degrees                        : 0
    faces with face pyramid volume < 1e-13                 : 0
    faces with face-decomposition tet quality < 1e-15      : 0
    faces with concavity > 80  degrees                     : 0
    faces with skewness > 4   (internal) or 20  (boundary) : 0
    faces with interpolation weights (0..1)  < 0.02        : 0
    faces with volume ratio of neighbour cells < 0.01      : 0
    faces with face twist < 0.02                           : 0
    faces on cells with determinant < 0.001                : 0
Successfully moved mesh

Smoothing iteration 1
Found 0 non-manifold point(s).

Scaling iteration 0
Moving mesh using displacement scaling : min:1  max:1
Checking faces in error :
    non-orthogonality > 65  degrees                        : 0
    faces with face pyramid volume < 1e-13                 : 0
    faces with face-decomposition tet quality < 1e-15      : 0
    faces with concavity > 80  degrees                     : 0
    faces with skewness > 4   (internal) or 20  (boundary) : 0
    faces with interpolation weights (0..1)  < 0.02        : 0
    faces with volume ratio of neighbour cells < 0.01      : 0
    faces with face twist < 0.02                           : 0
    faces on cells with determinant < 0.001                : 0
Successfully moved mesh

Smoothing iteration 2
Found 0 non-manifold point(s).

Scaling iteration 0
Moving mesh using displacement scaling : min:1  max:1
Checking faces in error :
    non-orthogonality > 65  degrees                        : 0
    faces with face pyramid volume < 1e-13                 : 0
    faces with face-decomposition tet quality < 1e-15      : 0
    faces with concavity > 80  degrees                     : 0
    faces with skewness > 4   (internal) or 20  (boundary) : 0
    faces with interpolation weights (0..1)  < 0.02        : 0
    faces with volume ratio of neighbour cells < 0.01      : 0
    faces with face twist < 0.02                           : 0
    faces on cells with determinant < 0.001                : 0
Successfully moved mesh

Patch points smoothed in = 1.06 s



Morph iteration 0
-----------------
Calculating patchDisplacement as distance to nearest surface point ...
    non-zone points : attract to nearest of all non-zone surfaces
    zone points     : attract to zone surface only

Wanted displacement : average:0.000257479 min:1.63523e-07 max:0.0011329
Calculated surface displacement in = 0.01 s


Detecting near surfaces ...
Overriding nearest with intersection of close gaps at 68 out of 44592 points.
Overriding displacement on features :
   implicit features    : false
   explicit features    : true
   multi-patch features : false

Detected 4 baffle edges out of 88558 edges.
Baffle points     : 6 of which attracted to :
    feature point : 0
    feature edge  : 6
    rest          : 0

Initially selected 1719 mesh points out of 44592 for reverse attraction.
Selected 5037 mesh points out of 44592 for reverse attraction.
Stringing feature edges : changed 106 points
Stringing feature edges : changed 1 points
Stringing feature edges : changed 0 points
Attraction:
    linear   : max:(-0.00110891 -1.83352e-07 0.000231872) avg:(-5.92614e-06 -1.72538e-08 -1.58444e-06)
    feature  : max:(0.0015212 -0.00103177 -0.00082402) avg:(5.99932e-07 2.49257e-08 -1.68382e-06)
Feature analysis : total master points :43966 of which attracted to :
    feature point   : 17
    feature edge    : 1451
    nearest surface : 0
    rest            : 42498

--> FOAM Warning : Displacement (-3.83081e-20 3.96829e-06 -5.12271e-05) at mesh point 24 coord (0.253596 0.051351 0.000184729) points through the surrounding patch faces
Smoothing displacement ...
Iteration 0
Iteration 10
Iteration 20
Displacement smoothed in = 0.59 s


Moving mesh ...

Iteration 0
Moving mesh using displacement scaling : min:1  max:1
Checking faces in error :
    non-orthogonality > 65  degrees                        : 0
    faces with face pyramid volume < 1e-13                 : 0
    faces with face-decomposition tet quality < 1e-15      : 0
    faces with concavity > 80  degrees                     : 0
    faces with skewness > 4   (internal) or 20  (boundary) : 0
    faces with interpolation weights (0..1)  < 0.02        : 0
    faces with volume ratio of neighbour cells < 0.01      : 0
    faces with face twist < 0.02                           : 0
    faces on cells with determinant < 0.001                : 0
Successfully moved mesh
Moved mesh in = 0.28 s



Morph iteration 1
-----------------
Calculating patchDisplacement as distance to nearest surface point ...
    non-zone points : attract to nearest of all non-zone surfaces
    zone points     : attract to zone surface only

Wanted displacement : average:0.000235423 min:1.77287e-08 max:0.00109655
Calculated surface displacement in = 0 s


Detecting near surfaces ...
Overriding nearest with intersection of close gaps at 68 out of 44592 points.
Overriding displacement on features :
   implicit features    : false
   explicit features    : true
   multi-patch features : false

Detected 4 baffle edges out of 88558 edges.
Baffle points     : 6 of which attracted to :
    feature point : 0
    feature edge  : 6
    rest          : 0

Initially selected 1724 mesh points out of 44592 for reverse attraction.
Selected 5047 mesh points out of 44592 for reverse attraction.
Stringing feature edges : changed 102 points
Stringing feature edges : changed 1 points
Stringing feature edges : changed 0 points
Attraction:
    linear   : max:(-0.00107333 -1.77469e-07 0.000224432) avg:(-5.65676e-06 -1.50203e-08 -1.07831e-06)
    feature  : max:(0.00150831 -0.00102002 -0.000809775) avg:(5.25409e-07 1.47463e-08 -1.46373e-06)
Feature analysis : total master points :43966 of which attracted to :
    feature point   : 17
    feature edge    : 1451
    nearest surface : 0
    rest            : 42498

--> FOAM Warning : Displacement (2.38247e-16 1.49092e-05 -8.61956e-05) at mesh point 24 coord (0.253596 0.051355 0.000133502) points through the surrounding patch faces
Smoothing displacement ...
Iteration 0
Iteration 10
Iteration 20
Displacement smoothed in = 0.51 s


Moving mesh ...

Iteration 0
Moving mesh using displacement scaling : min:1  max:1
Checking faces in error :
    non-orthogonality > 65  degrees                        : 0
    faces with face pyramid volume < 1e-13                 : 0
    faces with face-decomposition tet quality < 1e-15      : 0
    faces with concavity > 80  degrees                     : 0
    faces with skewness > 4   (internal) or 20  (boundary) : 0
    faces with interpolation weights (0..1)  < 0.02        : 0
    faces with volume ratio of neighbour cells < 0.01      : 0
    faces with face twist < 0.02                           : 0
    faces on cells with determinant < 0.001                : 0
Successfully moved mesh
Moved mesh in = 0.31 s



Morph iteration 2
-----------------
Calculating patchDisplacement as distance to nearest surface point ...
    non-zone points : attract to nearest of all non-zone surfaces
    zone points     : attract to zone surface only

Wanted displacement : average:0.000195672 min:1.50972e-08 max:0.00101386
Calculated surface displacement in = 0.01 s


Detecting near surfaces ...
Overriding nearest with intersection of close gaps at 68 out of 44592 points.
Overriding displacement on features :
   implicit features    : false
   explicit features    : true
   multi-patch features : false

Detected 4 baffle edges out of 88558 edges.
Baffle points     : 6 of which attracted to :
    feature point : 0
    feature edge  : 6
    rest          : 0

Initially selected 1724 mesh points out of 44592 for reverse attraction.
Selected 5047 mesh points out of 44592 for reverse attraction.
Stringing feature edges : changed 91 points
Stringing feature edges : changed 1 points
Stringing feature edges : changed 0 points
Attraction:
    linear   : max:(-0.0009924 -1.64087e-07 0.000207509) avg:(-5.03461e-06 -7.95554e-09 -2.49364e-07)
    feature  : max:(0.00148685 -0.000977635 -0.000767708) avg:(3.17154e-07 6.47968e-09 -1.20782e-06)
Feature analysis : total master points :43966 of which attracted to :
    feature point   : 17
    feature edge    : 1451
    nearest surface : 0
    rest            : 42498

--> FOAM Warning : Displacement (-1.7939e-15 3.14364e-05 -8.77784e-05) at mesh point 24 coord (0.253596 0.0513699 4.7306e-05) points through the surrounding patch faces
Smoothing displacement ...
Iteration 0
Iteration 10
Iteration 20
Displacement smoothed in = 0.77 s


Moving mesh ...

Iteration 0
Moving mesh using displacement scaling : min:1  max:1
Checking faces in error :
    non-orthogonality > 65  degrees                        : 0
    faces with face pyramid volume < 1e-13                 : 0
    faces with face-decomposition tet quality < 1e-15      : 0
    faces with concavity > 80  degrees                     : 0
    faces with skewness > 4   (internal) or 20  (boundary) : 0
    faces with interpolation weights (0..1)  < 0.02        : 0
    faces with volume ratio of neighbour cells < 0.01      : 0
    faces with face twist < 0.02                           : 0
    faces on cells with determinant < 0.001                : 0
Successfully moved mesh
Moved mesh in = 0.33 s



Morph iteration 3
-----------------
Calculating patchDisplacement as distance to nearest surface point ...
    non-zone points : attract to nearest of all non-zone surfaces
    zone points     : attract to zone surface only

Wanted displacement : average:0.000147351 min:4.03521e-08 max:0.000881854
Calculated surface displacement in = 0.01 s


Detecting near surfaces ...
Overriding nearest with intersection of close gaps at 68 out of 44592 points.
Overriding displacement on features :
   implicit features    : false
   explicit features    : true
   multi-patch features : false

Detected 4 baffle edges out of 88558 edges.
Baffle points     : 6 of which attracted to :
    feature point : 0
    feature edge  : 6
    rest          : 0

Initially selected 1716 mesh points out of 44592 for reverse attraction.
Selected 5032 mesh points out of 44592 for reverse attraction.
Stringing feature edges : changed 82 points
Stringing feature edges : changed 1 points
Stringing feature edges : changed 0 points
Attraction:
    linear   : max:(-0.000863185 -1.42722e-07 0.000180491) avg:(-4.11658e-06 1.97009e-08 5.07971e-07)
    feature  : max:(0.000888215 0.00160717 8.48038e-05) avg:(2.58868e-07 -2.08722e-08 -8.2913e-07)
Feature analysis : total master points :43966 of which attracted to :
    feature point   : 15
    feature edge    : 1454
    nearest surface : 0
    rest            : 42497

--> FOAM Warning : Displacement (8.23439e-15 5.12654e-05 -5.27153e-05) at mesh point 24 coord (0.253596 0.0514013 -4.04724e-05) points through the surrounding patch faces
Smoothing displacement ...
Iteration 0
Iteration 10
Iteration 20
Displacement smoothed in = 0.62 s


Moving mesh ...

Iteration 0
Moving mesh using displacement scaling : min:1  max:1
Checking faces in error :
    non-orthogonality > 65  degrees                        : 0
    faces with face pyramid volume < 1e-13                 : 0
    faces with face-decomposition tet quality < 1e-15      : 0
    faces with concavity > 80  degrees                     : 0
    faces with skewness > 4   (internal) or 20  (boundary) : 0
    faces with interpolation weights (0..1)  < 0.02        : 0
    faces with volume ratio of neighbour cells < 0.01      : 0
    faces with face twist < 0.02                           : 0
    faces on cells with determinant < 0.001                : 0
Successfully moved mesh
Moved mesh in = 0.3 s



Morph iteration 4
-----------------
Calculating patchDisplacement as distance to nearest surface point ...
    non-zone points : attract to nearest of all non-zone surfaces
    zone points     : attract to zone surface only

Wanted displacement : average:9.9505e-05 min:1.23256e-09 max:0.000707593
Calculated surface displacement in = 0 s


Detecting near surfaces ...
Overriding nearest with intersection of close gaps at 68 out of 44592 points.
Overriding displacement on features :
   implicit features    : false
   explicit features    : true
   multi-patch features : false

Detected 0 baffle edges out of 88558 edges.
Baffle points     : 0 of which attracted to :
    feature point : 0
    feature edge  : 0
    rest          : 0

Initially selected 1694 mesh points out of 44592 for reverse attraction.
Selected 4977 mesh points out of 44592 for reverse attraction.
Stringing feature edges : changed 66 points
Stringing feature edges : changed 0 points
Attraction:
    linear   : max:(-0.000692613 -1.14519e-07 0.000144824) avg:(-2.9719e-06 2.69453e-08 8.82175e-07)
    feature  : max:(0.000867537 0.00161838 8.56916e-05) avg:(1.08173e-07 8.05151e-10 -2.98928e-07)
Feature analysis : total master points :43966 of which attracted to :
    feature point   : 12
    feature edge    : 1455
    nearest surface : 0
    rest            : 42499

--> FOAM Warning : Displacement (1.02811e-13 6.97005e-05 1.67715e-06) at mesh point 24 coord (0.253596 0.0514526 -9.31876e-05) points through the surrounding patch faces
Smoothing displacement ...
Iteration 0
Iteration 10
Iteration 20
Displacement smoothed in = 0.6 s


Moving mesh ...

Iteration 0
Moving mesh using displacement scaling : min:1  max:1
Checking faces in error :
    non-orthogonality > 65  degrees                        : 0
    faces with face pyramid volume < 1e-13                 : 0
    faces with face-decomposition tet quality < 1e-15      : 0
    faces with concavity > 80  degrees                     : 0
    faces with skewness > 4   (internal) or 20  (boundary) : 0
    faces with interpolation weights (0..1)  < 0.02        : 0
    faces with volume ratio of neighbour cells < 0.01      : 0
    faces with face twist < 0.02                           : 0
    faces on cells with determinant < 0.001                : 0
Successfully moved mesh
Moved mesh in = 0.32 s



Morph iteration 5
-----------------
Calculating patchDisplacement as distance to nearest surface point ...
    non-zone points : attract to nearest of all non-zone surfaces
    zone points     : attract to zone surface only

Wanted displacement : average:5.84099e-05 min:7.17918e-09 max:0.000507972
Calculated surface displacement in = 0.01 s


Detecting near surfaces ...
Overriding nearest with intersection of close gaps at 72 out of 44592 points.
Overriding displacement on features :
   implicit features    : false
   explicit features    : true
   multi-patch features : false

Detected 0 baffle edges out of 88558 edges.
Baffle points     : 0 of which attracted to :
    feature point : 0
    feature edge  : 0
    rest          : 0

Initially selected 1691 mesh points out of 44592 for reverse attraction.
Selected 4964 mesh points out of 44592 for reverse attraction.
Stringing feature edges : changed 50 points
Stringing feature edges : changed 0 points
Attraction:
    linear   : max:(0.000413713 1.14569e-05 0.000353018) avg:(-1.75393e-06 1.41119e-08 7.76727e-07)
    feature  : max:(0.000624919 -0.00171942 0.000203555) avg:(8.44506e-08 1.06712e-08 -3.8385e-08)
Feature analysis : total master points :43966 of which attracted to :
    feature point   : 16
    feature edge    : 1453
    nearest surface : 0
    rest            : 42497

--> FOAM Warning : Displacement (0 0.000191684 -6.98064e-05) at mesh point 303 coord (0.253596 0.0532429 0.000116344) points through the surrounding patch faces
Smoothing displacement ...
Iteration 0
Iteration 10
Iteration 20
Displacement smoothed in = 0.49 s


Moving mesh ...

Iteration 0
Moving mesh using displacement scaling : min:1  max:1
Checking faces in error :
    non-orthogonality > 65  degrees                        : 0
    faces with face pyramid volume < 1e-13                 : 0
    faces with face-decomposition tet quality < 1e-15      : 2
    faces with concavity > 80  degrees                     : 0
    faces with skewness > 4   (internal) or 20  (boundary) : 0
    faces with interpolation weights (0..1)  < 0.02        : 0
    faces with volume ratio of neighbour cells < 0.01      : 0
    faces with face twist < 0.02                           : 0
    faces on cells with determinant < 0.001                : 0

Iteration 1
Moving mesh using displacement scaling : min:0.75  max:1
Checking faces in error :
    non-orthogonality > 65  degrees                        : 0
    faces with face pyramid volume < 1e-13                 : 0
    faces with face-decomposition tet quality < 1e-15      : 0
    faces with concavity > 80  degrees                     : 0
    faces with skewness > 4   (internal) or 20  (boundary) : 0
    faces with interpolation weights (0..1)  < 0.02        : 0
    faces with volume ratio of neighbour cells < 0.01      : 0
    faces with face twist < 0.02                           : 0
    faces on cells with determinant < 0.001                : 0
Successfully moved mesh
Moved mesh in = 0.41 s



Morph iteration 6
-----------------
Calculating patchDisplacement as distance to nearest surface point ...
    non-zone points : attract to nearest of all non-zone surfaces
    zone points     : attract to zone surface only

Wanted displacement : average:3.12966e-05 min:2.49965e-08 max:0.000312761
Calculated surface displacement in = 0.01 s


Detecting near surfaces ...
Overriding nearest with intersection of close gaps at 74 out of 44592 points.
Overriding displacement on features :
   implicit features    : false
   explicit features    : true
   multi-patch features : false

Detected 12 baffle edges out of 88558 edges.
Baffle points     : 13 of which attracted to :
    feature point : 0
    feature edge  : 13
    rest          : 0

Initially selected 1692 mesh points out of 44592 for reverse attraction.
Selected 4964 mesh points out of 44592 for reverse attraction.
Stringing feature edges : changed 50 points
Stringing feature edges : changed 0 points
Attraction:
    linear   : max:(-0.00030614 -5.06184e-08 6.40134e-05) avg:(-7.60864e-07 1.14791e-09 3.71671e-07)
    feature  : max:(0.00059353 -0.00173364 0.000174896) avg:(5.74138e-08 8.04505e-09 8.58565e-08)
Feature analysis : total master points :43966 of which attracted to :
    feature point   : 16
    feature edge    : 1453
    nearest surface : 0
    rest            : 42497

--> FOAM Warning : Displacement (0 0.000166978 -3.25763e-05) at mesh point 303 coord (0.253596 0.0534346 4.65376e-05) points through the surrounding patch faces
Smoothing displacement ...
Iteration 0
Iteration 10
Iteration 20
Displacement smoothed in = 0.49 s


Moving mesh ...

Iteration 0
Moving mesh using displacement scaling : min:1  max:1
Checking faces in error :
    non-orthogonality > 65  degrees                        : 0
    faces with face pyramid volume < 1e-13                 : 0
    faces with face-decomposition tet quality < 1e-15      : 14
    faces with concavity > 80  degrees                     : 2
    faces with skewness > 4   (internal) or 20  (boundary) : 0
    faces with interpolation weights (0..1)  < 0.02        : 0
    faces with volume ratio of neighbour cells < 0.01      : 0
    faces with face twist < 0.02                           : 0
    faces on cells with determinant < 0.001                : 0

Iteration 1
Moving mesh using displacement scaling : min:0.75  max:1
Checking faces in error :
    non-orthogonality > 65  degrees                        : 0
    faces with face pyramid volume < 1e-13                 : 0
    faces with face-decomposition tet quality < 1e-15      : 6
    faces with concavity > 80  degrees                     : 0
    faces with skewness > 4   (internal) or 20  (boundary) : 0
    faces with interpolation weights (0..1)  < 0.02        : 0
    faces with volume ratio of neighbour cells < 0.01      : 0
    faces with face twist < 0.02                           : 0
    faces on cells with determinant < 0.001                : 0

Iteration 2
Moving mesh using displacement scaling : min:0.5625  max:1
Checking faces in error :
    non-orthogonality > 65  degrees                        : 0
    faces with face pyramid volume < 1e-13                 : 0
    faces with face-decomposition tet quality < 1e-15      : 6
    faces with concavity > 80  degrees                     : 0
    faces with skewness > 4   (internal) or 20  (boundary) : 0
    faces with interpolation weights (0..1)  < 0.02        : 0
    faces with volume ratio of neighbour cells < 0.01      : 0
    faces with face twist < 0.02                           : 0
    faces on cells with determinant < 0.001                : 0

Iteration 3
Moving mesh using displacement scaling : min:0.421875  max:1
Checking faces in error :
    non-orthogonality > 65  degrees                        : 0
    faces with face pyramid volume < 1e-13                 : 0
    faces with face-decomposition tet quality < 1e-15      : 6
    faces with concavity > 80  degrees                     : 0
    faces with skewness > 4   (internal) or 20  (boundary) : 0
    faces with interpolation weights (0..1)  < 0.02        : 0
    faces with volume ratio of neighbour cells < 0.01      : 0
    faces with face twist < 0.02                           : 0
    faces on cells with determinant < 0.001                : 0

Iteration 4
Moving mesh using displacement scaling : min:0.316406  max:1
Checking faces in error :
    non-orthogonality > 65  degrees                        : 0
    faces with face pyramid volume < 1e-13                 : 0
    faces with face-decomposition tet quality < 1e-15      : 4
    faces with concavity > 80  degrees                     : 0
    faces with skewness > 4   (internal) or 20  (boundary) : 0
    faces with interpolation weights (0..1)  < 0.02        : 0
    faces with volume ratio of neighbour cells < 0.01      : 0
    faces with face twist < 0.02                           : 0
    faces on cells with determinant < 0.001                : 0

Iteration 5
Displacement scaling for error reduction set to 0.
Moving mesh using displacement scaling : min:0.237305  max:1
Checking faces in error :
    non-orthogonality > 65  degrees                        : 0
    faces with face pyramid volume < 1e-13                 : 0
    faces with face-decomposition tet quality < 1e-15      : 2
    faces with concavity > 80  degrees                     : 0
    faces with skewness > 4   (internal) or 20  (boundary) : 0
    faces with interpolation weights (0..1)  < 0.02        : 0
    faces with volume ratio of neighbour cells < 0.01      : 0
    faces with face twist < 0.02                           : 0
    faces on cells with determinant < 0.001                : 0

Iteration 6
Moving mesh using displacement scaling : min:0  max:1
Checking faces in error :
    non-orthogonality > 65  degrees                        : 0
    faces with face pyramid volume < 1e-13                 : 0
    faces with face-decomposition tet quality < 1e-15      : 0
    faces with concavity > 80  degrees                     : 0
    faces with skewness > 4   (internal) or 20  (boundary) : 0
    faces with interpolation weights (0..1)  < 0.02        : 0
    faces with volume ratio of neighbour cells < 0.01      : 0
    faces with face twist < 0.02                           : 0
    faces on cells with determinant < 0.001                : 0
Successfully moved mesh
Moved mesh in = 0.98 s



Morph iteration 7
-----------------
Calculating patchDisplacement as distance to nearest surface point ...
    non-zone points : attract to nearest of all non-zone surfaces
    zone points     : attract to zone surface only

Wanted displacement : average:1.51762e-05 min:1.36354e-09 max:0.00021968
Calculated surface displacement in = 0.01 s


Detecting near surfaces ...
Overriding nearest with intersection of close gaps at 116 out of 44592 points.
Overriding displacement on features :
   implicit features    : false
   explicit features    : true
   multi-patch features : false

Detected 16 baffle edges out of 88558 edges.
Baffle points     : 17 of which attracted to :
    feature point : 0
    feature edge  : 17
    rest          : 0

Initially selected 1692 mesh points out of 44592 for reverse attraction.
Selected 4964 mesh points out of 44592 for reverse attraction.
Stringing feature edges : changed 28 points
Stringing feature edges : changed 0 points
Attraction:
    linear   : max:(9.1189e-05 3.6131e-08 -0.00019986) avg:(-1.15697e-07 -1.22008e-09 2.95956e-08)
    feature  : max:(0.00059353 -0.00173364 0.000174896) avg:(8.24466e-08 5.56545e-09 1.4731e-07)
Feature analysis : total master points :43966 of which attracted to :
    feature point   : 16
    feature edge    : 1453
    nearest surface : 0
    rest            : 42497

--> FOAM Warning : Displacement (0 0.000111228 -1.1169e-05) at mesh point 303 coord (0.253596 0.0536016 1.39613e-05) points through the surrounding patch faces
Smoothing displacement ...
Iteration 0
Iteration 10
Iteration 20
Displacement smoothed in = 0.51 s


Moving mesh ...

Iteration 0
Moving mesh using displacement scaling : min:1  max:1
Checking faces in error :
    non-orthogonality > 65  degrees                        : 2
    faces with face pyramid volume < 1e-13                 : 0
    faces with face-decomposition tet quality < 1e-15      : 12
    faces with concavity > 80  degrees                     : 0
    faces with skewness > 4   (internal) or 20  (boundary) : 0
    faces with interpolation weights (0..1)  < 0.02        : 0
    faces with volume ratio of neighbour cells < 0.01      : 0
    faces with face twist < 0.02                           : 0
    faces on cells with determinant < 0.001                : 0

Iteration 1
Moving mesh using displacement scaling : min:0.75  max:1
Checking faces in error :
    non-orthogonality > 65  degrees                        : 0
    faces with face pyramid volume < 1e-13                 : 0
    faces with face-decomposition tet quality < 1e-15      : 13
    faces with concavity > 80  degrees                     : 2
    faces with skewness > 4   (internal) or 20  (boundary) : 0
    faces with interpolation weights (0..1)  < 0.02        : 0
    faces with volume ratio of neighbour cells < 0.01      : 0
    faces with face twist < 0.02                           : 1
    faces on cells with determinant < 0.001                : 0

Iteration 2
Moving mesh using displacement scaling : min:0.5625  max:1
Checking faces in error :
    non-orthogonality > 65  degrees                        : 0
    faces with face pyramid volume < 1e-13                 : 0
    faces with face-decomposition tet quality < 1e-15      : 12
    faces with concavity > 80  degrees                     : 0
    faces with skewness > 4   (internal) or 20  (boundary) : 0
    faces with interpolation weights (0..1)  < 0.02        : 0
    faces with volume ratio of neighbour cells < 0.01      : 0
    faces with face twist < 0.02                           : 0
    faces on cells with determinant < 0.001                : 0

Iteration 3
Moving mesh using displacement scaling : min:0.421875  max:1
Checking faces in error :
    non-orthogonality > 65  degrees                        : 0
    faces with face pyramid volume < 1e-13                 : 0
    faces with face-decomposition tet quality < 1e-15      : 8
    faces with concavity > 80  degrees                     : 0
    faces with skewness > 4   (internal) or 20  (boundary) : 0
    faces with interpolation weights (0..1)  < 0.02        : 0
    faces with volume ratio of neighbour cells < 0.01      : 0
    faces with face twist < 0.02                           : 0
    faces on cells with determinant < 0.001                : 0

Iteration 4
Moving mesh using displacement scaling : min:0.316406  max:1
Checking faces in error :
    non-orthogonality > 65  degrees                        : 0
    faces with face pyramid volume < 1e-13                 : 0
    faces with face-decomposition tet quality < 1e-15      : 6
    faces with concavity > 80  degrees                     : 0
    faces with skewness > 4   (internal) or 20  (boundary) : 0
    faces with interpolation weights (0..1)  < 0.02        : 0
    faces with volume ratio of neighbour cells < 0.01      : 0
    faces with face twist < 0.02                           : 0
    faces on cells with determinant < 0.001                : 0

Iteration 5
Displacement scaling for error reduction set to 0.
Moving mesh using displacement scaling : min:0.237305  max:1
Checking faces in error :
    non-orthogonality > 65  degrees                        : 0
    faces with face pyramid volume < 1e-13                 : 0
    faces with face-decomposition tet quality < 1e-15      : 4
    faces with concavity > 80  degrees                     : 0
    faces with skewness > 4   (internal) or 20  (boundary) : 0
    faces with interpolation weights (0..1)  < 0.02        : 0
    faces with volume ratio of neighbour cells < 0.01      : 0
    faces with face twist < 0.02                           : 0
    faces on cells with determinant < 0.001                : 0

Iteration 6
Moving mesh using displacement scaling : min:0  max:1
Checking faces in error :
    non-orthogonality > 65  degrees                        : 0
    faces with face pyramid volume < 1e-13                 : 0
    faces with face-decomposition tet quality < 1e-15      : 0
    faces with concavity > 80  degrees                     : 0
    faces with skewness > 4   (internal) or 20  (boundary) : 0
    faces with interpolation weights (0..1)  < 0.02        : 0
    faces with volume ratio of neighbour cells < 0.01      : 0
    faces with face twist < 0.02                           : 0
    faces on cells with determinant < 0.001                : 0
Successfully moved mesh
Moved mesh in = 0.95 s



Morph iteration 8
-----------------
Calculating patchDisplacement as distance to nearest surface point ...
    non-zone points : attract to nearest of all non-zone surfaces
    zone points     : attract to zone surface only

Wanted displacement : average:7.09046e-06 min:8.17102e-10 max:0.00021968
Calculated surface displacement in = 0 s


Detecting near surfaces ...
Overriding nearest with intersection of close gaps at 148 out of 44592 points.
Overriding displacement on features :
   implicit features    : false
   explicit features    : true
   multi-patch features : false

Detected 16 baffle edges out of 88558 edges.
Baffle points     : 17 of which attracted to :
    feature point : 0
    feature edge  : 17
    rest          : 0

Initially selected 1692 mesh points out of 44592 for reverse attraction.
Selected 4964 mesh points out of 44592 for reverse attraction.
Stringing feature edges : changed 16 points
Stringing feature edges : changed 0 points
Attraction:
    linear   : max:(9.1189e-05 3.6131e-08 -0.00019986) avg:(1.21971e-07 -9.18752e-10 -1.01122e-07)
    feature  : max:(0.00059353 -0.00173364 0.000174896) avg:(1.23653e-07 3.52022e-09 1.29093e-07)
Feature analysis : total master points :43966 of which attracted to :
    feature point   : 16
    feature edge    : 1453
    nearest surface : 0
    rest            : 42497

--> FOAM Warning : Displacement (1.59729e-13 1.88021e-05 -7.179e-06) at mesh point 24 coord (0.253596 0.0517153 2.58744e-05) points through the surrounding patch faces
Smoothing displacement ...
Iteration 0
Iteration 10
Iteration 20
Displacement smoothed in = 0.56 s


Moving mesh ...

Iteration 0
Moving mesh using displacement scaling : min:1  max:1
Checking faces in error :
    non-orthogonality > 65  degrees                        : 2
    faces with face pyramid volume < 1e-13                 : 0
    faces with face-decomposition tet quality < 1e-15      : 44
    faces with concavity > 80  degrees                     : 0
    faces with skewness > 4   (internal) or 20  (boundary) : 0
    faces with interpolation weights (0..1)  < 0.02        : 0
    faces with volume ratio of neighbour cells < 0.01      : 0
    faces with face twist < 0.02                           : 4
    faces on cells with determinant < 0.001                : 0

Iteration 1
Moving mesh using displacement scaling : min:0.75  max:1
Checking faces in error :
    non-orthogonality > 65  degrees                        : 2
    faces with face pyramid volume < 1e-13                 : 0
    faces with face-decomposition tet quality < 1e-15      : 24
    faces with concavity > 80  degrees                     : 0
    faces with skewness > 4   (internal) or 20  (boundary) : 0
    faces with interpolation weights (0..1)  < 0.02        : 0
    faces with volume ratio of neighbour cells < 0.01      : 0
    faces with face twist < 0.02                           : 4
    faces on cells with determinant < 0.001                : 0

Iteration 2
Moving mesh using displacement scaling : min:0.5625  max:1
Checking faces in error :
    non-orthogonality > 65  degrees                        : 0
    faces with face pyramid volume < 1e-13                 : 0
    faces with face-decomposition tet quality < 1e-15      : 16
    faces with concavity > 80  degrees                     : 2
    faces with skewness > 4   (internal) or 20  (boundary) : 0
    faces with interpolation weights (0..1)  < 0.02        : 0
    faces with volume ratio of neighbour cells < 0.01      : 0
    faces with face twist < 0.02                           : 0
    faces on cells with determinant < 0.001                : 0

Iteration 3
Moving mesh using displacement scaling : min:0.421875  max:1
Checking faces in error :
    non-orthogonality > 65  degrees                        : 0
    faces with face pyramid volume < 1e-13                 : 0
    faces with face-decomposition tet quality < 1e-15      : 18
    faces with concavity > 80  degrees                     : 0
    faces with skewness > 4   (internal) or 20  (boundary) : 0
    faces with interpolation weights (0..1)  < 0.02        : 0
    faces with volume ratio of neighbour cells < 0.01      : 0
    faces with face twist < 0.02                           : 0
    faces on cells with determinant < 0.001                : 0

Iteration 4
Moving mesh using displacement scaling : min:0.316406  max:1
Checking faces in error :
    non-orthogonality > 65  degrees                        : 0
    faces with face pyramid volume < 1e-13                 : 0
    faces with face-decomposition tet quality < 1e-15      : 16
    faces with concavity > 80  degrees                     : 0
    faces with skewness > 4   (internal) or 20  (boundary) : 0
    faces with interpolation weights (0..1)  < 0.02        : 0
    faces with volume ratio of neighbour cells < 0.01      : 0
    faces with face twist < 0.02                           : 0
    faces on cells with determinant < 0.001                : 0

Iteration 5
Displacement scaling for error reduction set to 0.
Moving mesh using displacement scaling : min:0.237305  max:1
Checking faces in error :
    non-orthogonality > 65  degrees                        : 0
    faces with face pyramid volume < 1e-13                 : 0
    faces with face-decomposition tet quality < 1e-15      : 12
    faces with concavity > 80  degrees                     : 0
    faces with skewness > 4   (internal) or 20  (boundary) : 0
    faces with interpolation weights (0..1)  < 0.02        : 0
    faces with volume ratio of neighbour cells < 0.01      : 0
    faces with face twist < 0.02                           : 0
    faces on cells with determinant < 0.001                : 0

Iteration 6
Moving mesh using displacement scaling : min:0  max:1
Checking faces in error :
    non-orthogonality > 65  degrees                        : 0
    faces with face pyramid volume < 1e-13                 : 0
    faces with face-decomposition tet quality < 1e-15      : 0
    faces with concavity > 80  degrees                     : 0
    faces with skewness > 4   (internal) or 20  (boundary) : 0
    faces with interpolation weights (0..1)  < 0.02        : 0
    faces with volume ratio of neighbour cells < 0.01      : 0
    faces with face twist < 0.02                           : 0
    faces on cells with determinant < 0.001                : 0
Successfully moved mesh
Moved mesh in = 1.07 s



Morph iteration 9
-----------------
Calculating patchDisplacement as distance to nearest surface point ...
    non-zone points : attract to nearest of all non-zone surfaces
    zone points     : attract to zone surface only

Wanted displacement : average:2.51586e-06 min:7.27213e-12 max:0.00021968
Calculated surface displacement in = 0.01 s


Detecting near surfaces ...
Overriding nearest with intersection of close gaps at 73 out of 44592 points.
Overriding displacement on features :
   implicit features    : false
   explicit features    : true
   multi-patch features : false

Detected 16 baffle edges out of 88558 edges.
Baffle points     : 17 of which attracted to :
    feature point : 0
    feature edge  : 17
    rest          : 0

Initially selected 1692 mesh points out of 44592 for reverse attraction.
Selected 4964 mesh points out of 44592 for reverse attraction.
Stringing feature edges : changed 13 points
Stringing feature edges : changed 0 points
Attraction:
    linear   : max:(9.1189e-05 3.6131e-08 -0.00019986) avg:(9.87723e-08 -1.38283e-10 -6.929e-08)
    feature  : max:(0.00059353 -0.00173364 0.000174896) avg:(9.95747e-08 1.22976e-09 3.64648e-08)
Feature analysis : total master points :43966 of which attracted to :
    feature point   : 16
    feature edge    : 1453
    nearest surface : 0
    rest            : 42497

--> FOAM Warning : Displacement (0 -6.93889e-18 -1.86954e-05) at mesh point 24 coord (0.253596 0.0517341 1.86954e-05) points through the surrounding patch faces
Smoothing displacement ...
Iteration 0
Iteration 10
Iteration 20
Displacement smoothed in = 0.5 s


Moving mesh ...

Iteration 0
Moving mesh using displacement scaling : min:1  max:1
Checking faces in error :
    non-orthogonality > 65  degrees                        : 2
    faces with face pyramid volume < 1e-13                 : 2
    faces with face-decomposition tet quality < 1e-15      : 60
    faces with concavity > 80  degrees                     : 0
    faces with skewness > 4   (internal) or 20  (boundary) : 0
    faces with interpolation weights (0..1)  < 0.02        : 0
    faces with volume ratio of neighbour cells < 0.01      : 0
    faces with face twist < 0.02                           : 1
    faces on cells with determinant < 0.001                : 0

Iteration 1
Moving mesh using displacement scaling : min:0.75  max:1
Checking faces in error :
    non-orthogonality > 65  degrees                        : 2
    faces with face pyramid volume < 1e-13                 : 0
    faces with face-decomposition tet quality < 1e-15      : 55
    faces with concavity > 80  degrees                     : 0
    faces with skewness > 4   (internal) or 20  (boundary) : 0
    faces with interpolation weights (0..1)  < 0.02        : 0
    faces with volume ratio of neighbour cells < 0.01      : 0
    faces with face twist < 0.02                           : 0
    faces on cells with determinant < 0.001                : 0

Iteration 2
Moving mesh using displacement scaling : min:0.5625  max:1
Checking faces in error :
    non-orthogonality > 65  degrees                        : 2
    faces with face pyramid volume < 1e-13                 : 0
    faces with face-decomposition tet quality < 1e-15      : 44
    faces with concavity > 80  degrees                     : 2
    faces with skewness > 4   (internal) or 20  (boundary) : 0
    faces with interpolation weights (0..1)  < 0.02        : 0
    faces with volume ratio of neighbour cells < 0.01      : 0
    faces with face twist < 0.02                           : 0
    faces on cells with determinant < 0.001                : 0

Iteration 3
Moving mesh using displacement scaling : min:0.421875  max:1
Checking faces in error :
    non-orthogonality > 65  degrees                        : 0
    faces with face pyramid volume < 1e-13                 : 0
    faces with face-decomposition tet quality < 1e-15      : 36
    faces with concavity > 80  degrees                     : 0
    faces with skewness > 4   (internal) or 20  (boundary) : 0
    faces with interpolation weights (0..1)  < 0.02        : 0
    faces with volume ratio of neighbour cells < 0.01      : 0
    faces with face twist < 0.02                           : 4
    faces on cells with determinant < 0.001                : 0

Iteration 4
Moving mesh using displacement scaling : min:0.316406  max:1
Checking faces in error :
    non-orthogonality > 65  degrees                        : 0
    faces with face pyramid volume < 1e-13                 : 0
    faces with face-decomposition tet quality < 1e-15      : 30
    faces with concavity > 80  degrees                     : 0
    faces with skewness > 4   (internal) or 20  (boundary) : 0
    faces with interpolation weights (0..1)  < 0.02        : 0
    faces with volume ratio of neighbour cells < 0.01      : 0
    faces with face twist < 0.02                           : 0
    faces on cells with determinant < 0.001                : 0

Iteration 5
Displacement scaling for error reduction set to 0.
Moving mesh using displacement scaling : min:0.237305  max:1
Checking faces in error :
    non-orthogonality > 65  degrees                        : 0
    faces with face pyramid volume < 1e-13                 : 0
    faces with face-decomposition tet quality < 1e-15      : 22
    faces with concavity > 80  degrees                     : 0
    faces with skewness > 4   (internal) or 20  (boundary) : 0
    faces with interpolation weights (0..1)  < 0.02        : 0
    faces with volume ratio of neighbour cells < 0.01      : 0
    faces with face twist < 0.02                           : 0
    faces on cells with determinant < 0.001                : 0

Iteration 6
Moving mesh using displacement scaling : min:0  max:1
Checking faces in error :
    non-orthogonality > 65  degrees                        : 0
    faces with face pyramid volume < 1e-13                 : 0
    faces with face-decomposition tet quality < 1e-15      : 2
    faces with concavity > 80  degrees                     : 0
    faces with skewness > 4   (internal) or 20  (boundary) : 0
    faces with interpolation weights (0..1)  < 0.02        : 0
    faces with volume ratio of neighbour cells < 0.01      : 0
    faces with face twist < 0.02                           : 0
    faces on cells with determinant < 0.001                : 0

Iteration 7
Moving mesh using displacement scaling : min:0  max:1
Checking faces in error :
    non-orthogonality > 65  degrees                        : 0
    faces with face pyramid volume < 1e-13                 : 0
    faces with face-decomposition tet quality < 1e-15      : 0
    faces with concavity > 80  degrees                     : 0
    faces with skewness > 4   (internal) or 20  (boundary) : 0
    faces with interpolation weights (0..1)  < 0.02        : 0
    faces with volume ratio of neighbour cells < 0.01      : 0
    faces with face twist < 0.02                           : 0
    faces on cells with determinant < 0.001                : 0
Successfully moved mesh
Moved mesh in = 1.21 s


Repatching faces according to nearest surface ...
Repatched 0 faces in = 0.05 s


Edge intersection testing:
    Number of edges             : 1867406
    Number of edges to retest   : 314075
    Number of intersected edges : 43966
Merging 4144 sets of faces.

Edge intersection testing:
    Number of edges             : 1863260
    Number of edges to retest   : 16570
    Number of intersected edges : 39820

Undo iteration 0
----------------
Checking faces in error :
    non-orthogonality > 65  degrees                        : 0
    faces with face pyramid volume < 1e-13                 : 0
    faces with face-decomposition tet quality < 1e-15      : 0
    faces with concavity > 80  degrees                     : 0
    faces with skewness > 4   (internal) or 20  (boundary) : 0
    faces with interpolation weights (0..1)  < 0.02        : 0
    faces with volume ratio of neighbour cells < 0.01      : 0
    faces with face twist < 0.02                           : 0
    faces on cells with determinant < 0.001                : 0

Merging all points on surface that
- are used by only two boundary faces and
- make an angle with a cosine of more than 0.866025.

Removing 4058 straight edge points ...

Edge intersection testing:
    Number of edges             : 1863260
    Number of edges to retest   : 16552
    Number of intersected edges : 39820

Undo iteration 0
----------------
Checking faces in error :
    non-orthogonality > 65  degrees                        : 0
    faces with face pyramid volume < 1e-13                 : 0
    faces with face-decomposition tet quality < 1e-15      : 4
    faces with concavity > 80  degrees                     : 0
    faces with skewness > 4   (internal) or 20  (boundary) : 0
    faces with interpolation weights (0..1)  < 0.02        : 0
    faces with volume ratio of neighbour cells < 0.01      : 0
    faces with face twist < 0.02                           : 0
    faces on cells with determinant < 0.001                : 0
Detected 0 error faces on boundaries that have been merged. These will be restored to their original faces.

Detected 4 error faces in mesh. Restoring neighbours of faces in error.

Edge intersection testing:
    Number of edges             : 1863260
    Number of edges to retest   : 184
    Number of intersected edges : 39820
Snapped mesh : cells:599151  faces:1863260  points:665431  unbalance:0.00936158
Cells per refinement level:
    0	35297
    1	36680
    2	103924
    3	283446
    4	139804
Writing mesh to time constant
Wrote mesh in = 0.07 s.
Mesh snapped in = 15.44 s.
Layer specification as
- final layer thickness ('finalLayerThickness')
- expansion ratio ('expansionRatio')

Shrinking and layer addition phase
----------------------------------

Using mesh parameters 
{
    maxNonOrtho     65;
    maxBoundarySkewness 20;
    maxInternalSkewness 4;
    maxConcave      80;
    minVol          1e-13;
    minTetQuality   1e-15;
    minArea         -1;
    minTwist        0.02;
    minDeterminant  0.001;
    minFaceWeight   0.02;
    minVolRatio     0.01;
    minTriangleTwist -1;
    minEdgeLength   -1;
    nSmoothScale    4;
    errorReduction  0.75;
}



Merging all faces of a cell
---------------------------
    - which are on the same patch
    - which make an angle < 150 degrees (cos:-0.866025)
    - as long as the resulting face doesn't become concave by more than 90 degrees
      (0=straight, 180=fully concave)

Merging 203 sets of faces.

Edge intersection testing:
    Number of edges             : 1863057
    Number of edges to retest   : 841
    Number of intersected edges : 39512

Undo iteration 0
----------------
Checking faces in error :
    non-orthogonality > 65  degrees                        : 0
    faces with face pyramid volume < 1e-13                 : 0
    faces with face-decomposition tet quality < 1e-15      : 22
    faces with concavity > 80  degrees                     : 101
    faces with skewness > 4   (internal) or 20  (boundary) : 0
    faces with interpolation weights (0..1)  < 0.02        : 0
    faces with volume ratio of neighbour cells < 0.01      : 0
    faces with face twist < 0.02                           : 0
    faces on cells with determinant < 0.001                : 0
Masters that need to be restored:119
Edge intersection testing:
    Number of edges             : 1863176
    Number of edges to retest   : 637
    Number of intersected edges : 39732


Undo iteration 1
----------------
Checking faces in error :
    non-orthogonality > 65  degrees                        : 0
    faces with face pyramid volume < 1e-13                 : 0
    faces with face-decomposition tet quality < 1e-15      : 0
    faces with concavity > 80  degrees                     : 0
    faces with skewness > 4   (internal) or 20  (boundary) : 0
    faces with interpolation weights (0..1)  < 0.02        : 0
    faces with volume ratio of neighbour cells < 0.01      : 0
    faces with face twist < 0.02                           : 0
    faces on cells with determinant < 0.001                : 0

Merging all points on surface that
- are used by only two boundary faces and
- make an angle with a cosine of more than -0.866025.

Removing 57 straight edge points ...

Edge intersection testing:
    Number of edges             : 1863176
    Number of edges to retest   : 297
    Number of intersected edges : 39686

Undo iteration 0
----------------
Checking faces in error :
    non-orthogonality > 65  degrees                        : 0
    faces with face pyramid volume < 1e-13                 : 0
    faces with face-decomposition tet quality < 1e-15      : 4
    faces with concavity > 80  degrees                     : 0
    faces with skewness > 4   (internal) or 20  (boundary) : 0
    faces with interpolation weights (0..1)  < 0.02        : 0
    faces with volume ratio of neighbour cells < 0.01      : 0
    faces with face twist < 0.02                           : 0
    faces on cells with determinant < 0.001                : 0
Detected 0 error faces on boundaries that have been merged. These will be restored to their original faces.

Detected 4 error faces in mesh. Restoring neighbours of faces in error.

Edge intersection testing:
    Number of edges             : 1863176
    Number of edges to retest   : 184
    Number of intersected edges : 39686

Checking mesh manifoldness ...

Checking initial mesh ...
Checking faces in error :
    non-orthogonality > 65  degrees                        : 0
    faces with face pyramid volume < 1e-13                 : 0
    faces with face-decomposition tet quality < 1e-15      : 0
    faces with concavity > 80  degrees                     : 0
    faces with skewness > 4   (internal) or 20  (boundary) : 0
    faces with interpolation weights (0..1)  < 0.02        : 0
    faces with volume ratio of neighbour cells < 0.01      : 0
    faces with face twist < 0.02                           : 0
    faces on cells with determinant < 0.001                : 0
Detected 0 illegal faces (concave, zero area or negative cell pyramid volume)

Before layer addition : cells:599151  faces:1863176  points:665378  unbalance:0.00936158
Ideal layer addition : cells:898606  unbalance:0.176191

Duplicating 0 points on faceZones of type boundary

Handling points with inconsistent layer specification ...
dupNonManifoldPoints : Found : 0 non-manifold points (out of 678420)

Handling points with inconsistent layer specification ...

Handling non-manifold points ...

Checking patch manifoldness ...
Outside of local patch is multiply connected across edges or points at 0 points.
Set displacement to zero for all 0 non-manifold points

Handling feature edges (angle < 150) ...
Set displacement to zero for points on 0 feature edges

Handling cells with warped patch faces ...
Set displacement to zero on 30 warped faces since layer would be > 0.5 of the size of the bounding box.

patch        faces    layers avg thickness[m]
                             near-wall overall
-----        -----    ------ --------- -------
frontAndBack 4964     5      0.00426   0.0317  
lowerWall    12709    5      0.00137   0.0102  
upperWall    2482     5      0.00426   0.0317  
ahmedBody    39736    5      0.000267  0.00197 


Outer iteration : 0
-------------------

Adding in total 0 inter-processor patches to handle extrusion of non-manifold processor boundaries.
Selecting externalDisplacementMeshMover displacementMedialAxis
displacementMedialAxis : Calculating distance to Medial Axis ...
fieldSmoother : Smoothing normals ...
    Iteration 0   residual 0.019254
displacementMedialAxis : Inserting points on patch inlet if angle to nearest layer patch > 30 degrees.
displacementMedialAxis : Inserting points on patch outlet if angle to nearest layer patch > 30 degrees.
fieldSmoother : Smoothing normals in interior ...
    Iteration 0   residual 0.0452775

Layer addition iteration 0
--------------------------

Determining displacement for added points according to pointNormal ...
Detected 0 points with point normal pointing through faces.
Reset displacement at 0 points to average of surrounding points.

displacementMedialAxis : Smoothing using Medial Axis ...
displacementMedialAxis : Reducing layer thickness at 11706 nodes where thickness to medial axis distance is large 
displacementMedialAxis : Removing isolated regions ...
- if partially extruded faces make angle < 75
- if exclusively surrounded by non-extruded faces
displacementMedialAxis : Number of isolated points extrusion stopped : 90
fieldSmoother : Smoothing field ...
    Iteration 0   residual 6.30431e-05
displacementMedialAxis : Moving mesh ...
displacementMedialAxis : Iteration 0
Moving mesh using displacement scaling : min:1  max:1
Checking faces in error :
    non-orthogonality > 65  degrees                        : 3
    faces with face pyramid volume < 1e-13                 : 2
    faces with face-decomposition tet quality < 1e-15      : 20
    faces with concavity > 80  degrees                     : 0
    faces with skewness > 4   (internal) or 20  (boundary) : 0
    faces with interpolation weights (0..1)  < 0.02        : 0
    faces with volume ratio of neighbour cells < 0.01      : 0
    faces with face twist < 0.02                           : 0
    faces on cells with determinant < 0.001                : 0
displacementMedialAxis : Iteration 1
Moving mesh using displacement scaling : min:0.75  max:1
Checking faces in error :
    non-orthogonality > 65  degrees                        : 0
    faces with face pyramid volume < 1e-13                 : 0
    faces with face-decomposition tet quality < 1e-15      : 4
    faces with concavity > 80  degrees                     : 0
    faces with skewness > 4   (internal) or 20  (boundary) : 0
    faces with interpolation weights (0..1)  < 0.02        : 0
    faces with volume ratio of neighbour cells < 0.01      : 0
    faces with face twist < 0.02                           : 0
    faces on cells with determinant < 0.001                : 0
displacementMedialAxis : Iteration 2
Moving mesh using displacement scaling : min:0.5625  max:1
Checking faces in error :
    non-orthogonality > 65  degrees                        : 0
    faces with face pyramid volume < 1e-13                 : 0
    faces with face-decomposition tet quality < 1e-15      : 4
    faces with concavity > 80  degrees                     : 2
    faces with skewness > 4   (internal) or 20  (boundary) : 0
    faces with interpolation weights (0..1)  < 0.02        : 0
    faces with volume ratio of neighbour cells < 0.01      : 0
    faces with face twist < 0.02                           : 0
    faces on cells with determinant < 0.001                : 0
displacementMedialAxis : Iteration 3
displacementMedialAxis : Displacement scaling for error reduction set to 0.
Moving mesh using displacement scaling : min:0.421875  max:1
Checking faces in error :
    non-orthogonality > 65  degrees                        : 0
    faces with face pyramid volume < 1e-13                 : 0
    faces with face-decomposition tet quality < 1e-15      : 4
    faces with concavity > 80  degrees                     : 2
    faces with skewness > 4   (internal) or 20  (boundary) : 0
    faces with interpolation weights (0..1)  < 0.02        : 0
    faces with volume ratio of neighbour cells < 0.01      : 0
    faces with face twist < 0.02                           : 0
    faces on cells with determinant < 0.001                : 0
displacementMedialAxis : Iteration 4
Moving mesh using displacement scaling : min:0  max:1
Checking faces in error :
    non-orthogonality > 65  degrees                        : 0
    faces with face pyramid volume < 1e-13                 : 0
    faces with face-decomposition tet quality < 1e-15      : 0
    faces with concavity > 80  degrees                     : 0
    faces with skewness > 4   (internal) or 20  (boundary) : 0
    faces with interpolation weights (0..1)  < 0.02        : 0
    faces with volume ratio of neighbour cells < 0.01      : 0
    faces with face twist < 0.02                           : 0
    faces on cells with determinant < 0.001                : 0
displacementMedialAxis : Successfully moved mesh
displacementMedialAxis : Finished moving mesh ...
truncateDisplacement : Unextruded 0 faces due to non-consecutive vertices being extruded.
truncateDisplacement : Unextruded 0 faces due to stringed edges with inconsistent extrusion.

Setting up information for layer truncation ...
Detected 0 baffles across faceZones of type internal


Checking mesh with layer ...
Checking faces in error :
    non-orthogonality > 65  degrees                        : 32
    faces with face pyramid volume < 1e-13                 : 0
    faces with face-decomposition tet quality < 1e-15      : 281
    faces with concavity > 80  degrees                     : 0
    faces with skewness > 4   (internal) or 20  (boundary) : 26
    faces with interpolation weights (0..1)  < 0.02        : 0
    faces with volume ratio of neighbour cells < 0.01      : 0
    faces with face twist < 0.02                           : 0
    faces on cells with determinant < 0.001                : 0
Detected 339 illegal faces (concave, zero area or negative cell pyramid volume)
Extruding 59664 out of 59891 faces (99.621%). Removed extrusion at 154 faces.
Added 294923 out of 299455 cells (98.4866%).


Layer addition iteration 1
--------------------------

Determining displacement for added points according to pointNormal ...
Detected 0 points with point normal pointing through faces.
Reset displacement at 0 points to average of surrounding points.

displacementMedialAxis : Smoothing using Medial Axis ...
displacementMedialAxis : Reducing layer thickness at 11600 nodes where thickness to medial axis distance is large 
displacementMedialAxis : Removing isolated regions ...
- if partially extruded faces make angle < 75
- if exclusively surrounded by non-extruded faces
displacementMedialAxis : Number of isolated points extrusion stopped : 125
fieldSmoother : Smoothing field ...
    Iteration 0   residual 6.7428e-05
displacementMedialAxis : Moving mesh ...
displacementMedialAxis : Iteration 0
Moving mesh using displacement scaling : min:1  max:1
Checking faces in error :
    non-orthogonality > 65  degrees                        : 3
    faces with face pyramid volume < 1e-13                 : 0
    faces with face-decomposition tet quality < 1e-15      : 22
    faces with concavity > 80  degrees                     : 0
    faces with skewness > 4   (internal) or 20  (boundary) : 0
    faces with interpolation weights (0..1)  < 0.02        : 0
    faces with volume ratio of neighbour cells < 0.01      : 0
    faces with face twist < 0.02                           : 0
    faces on cells with determinant < 0.001                : 0
displacementMedialAxis : Iteration 1
Moving mesh using displacement scaling : min:0.75  max:1
Checking faces in error :
    non-orthogonality > 65  degrees                        : 0
    faces with face pyramid volume < 1e-13                 : 0
    faces with face-decomposition tet quality < 1e-15      : 20
    faces with concavity > 80  degrees                     : 0
    faces with skewness > 4   (internal) or 20  (boundary) : 0
    faces with interpolation weights (0..1)  < 0.02        : 0
    faces with volume ratio of neighbour cells < 0.01      : 0
    faces with face twist < 0.02                           : 0
    faces on cells with determinant < 0.001                : 0
displacementMedialAxis : Iteration 2
Moving mesh using displacement scaling : min:0.5625  max:1
Checking faces in error :
    non-orthogonality > 65  degrees                        : 0
    faces with face pyramid volume < 1e-13                 : 0
    faces with face-decomposition tet quality < 1e-15      : 20
    faces with concavity > 80  degrees                     : 0
    faces with skewness > 4   (internal) or 20  (boundary) : 0
    faces with interpolation weights (0..1)  < 0.02        : 0
    faces with volume ratio of neighbour cells < 0.01      : 0
    faces with face twist < 0.02                           : 0
    faces on cells with determinant < 0.001                : 0
displacementMedialAxis : Iteration 3
displacementMedialAxis : Displacement scaling for error reduction set to 0.
Moving mesh using displacement scaling : min:0.421875  max:1
Checking faces in error :
    non-orthogonality > 65  degrees                        : 0
    faces with face pyramid volume < 1e-13                 : 0
    faces with face-decomposition tet quality < 1e-15      : 20
    faces with concavity > 80  degrees                     : 0
    faces with skewness > 4   (internal) or 20  (boundary) : 0
    faces with interpolation weights (0..1)  < 0.02        : 0
    faces with volume ratio of neighbour cells < 0.01      : 0
    faces with face twist < 0.02                           : 0
    faces on cells with determinant < 0.001                : 0
displacementMedialAxis : Iteration 4
Moving mesh using displacement scaling : min:0  max:1
Checking faces in error :
    non-orthogonality > 65  degrees                        : 0
    faces with face pyramid volume < 1e-13                 : 0
    faces with face-decomposition tet quality < 1e-15      : 0
    faces with concavity > 80  degrees                     : 0
    faces with skewness > 4   (internal) or 20  (boundary) : 0
    faces with interpolation weights (0..1)  < 0.02        : 0
    faces with volume ratio of neighbour cells < 0.01      : 0
    faces with face twist < 0.02                           : 0
    faces on cells with determinant < 0.001                : 0
displacementMedialAxis : Successfully moved mesh
displacementMedialAxis : Finished moving mesh ...
truncateDisplacement : Unextruded 2 faces due to non-consecutive vertices being extruded.
truncateDisplacement : Unextruded 0 faces due to stringed edges with inconsistent extrusion.
truncateDisplacement : Unextruded 0 faces due to non-consecutive vertices being extruded.
truncateDisplacement : Unextruded 0 faces due to stringed edges with inconsistent extrusion.

Setting up information for layer truncation ...
Detected 0 baffles across faceZones of type internal


Checking mesh with layer ...
Checking faces in error :
    non-orthogonality > 65  degrees                        : 1
    faces with face pyramid volume < 1e-13                 : 0
    faces with face-decomposition tet quality < 1e-15      : 9
    faces with concavity > 80  degrees                     : 0
    faces with skewness > 4   (internal) or 20  (boundary) : 0
    faces with interpolation weights (0..1)  < 0.02        : 0
    faces with volume ratio of neighbour cells < 0.01      : 0
    faces with face twist < 0.02                           : 0
    faces on cells with determinant < 0.001                : 0
Detected 10 illegal faces (concave, zero area or negative cell pyramid volume)
Extruding 59611 out of 59891 faces (99.5325%). Removed extrusion at 10 faces.
Added 285799 out of 299455 cells (95.4397%).


Layer addition iteration 2
--------------------------

Determining displacement for added points according to pointNormal ...
Detected 0 points with point normal pointing through faces.
Reset displacement at 0 points to average of surrounding points.

displacementMedialAxis : Smoothing using Medial Axis ...
displacementMedialAxis : Reducing layer thickness at 11584 nodes where thickness to medial axis distance is large 
displacementMedialAxis : Removing isolated regions ...
- if partially extruded faces make angle < 75
- if exclusively surrounded by non-extruded faces
displacementMedialAxis : Number of isolated points extrusion stopped : 63
fieldSmoother : Smoothing field ...
    Iteration 0   residual 6.83402e-05
displacementMedialAxis : Moving mesh ...
displacementMedialAxis : Iteration 0
Moving mesh using displacement scaling : min:1  max:1
Checking faces in error :
    non-orthogonality > 65  degrees                        : 3
    faces with face pyramid volume < 1e-13                 : 0
    faces with face-decomposition tet quality < 1e-15      : 2
    faces with concavity > 80  degrees                     : 0
    faces with skewness > 4   (internal) or 20  (boundary) : 0
    faces with interpolation weights (0..1)  < 0.02        : 0
    faces with volume ratio of neighbour cells < 0.01      : 0
    faces with face twist < 0.02                           : 0
    faces on cells with determinant < 0.001                : 0
displacementMedialAxis : Iteration 1
Moving mesh using displacement scaling : min:0.75  max:1
Checking faces in error :
    non-orthogonality > 65  degrees                        : 0
    faces with face pyramid volume < 1e-13                 : 0
    faces with face-decomposition tet quality < 1e-15      : 1
    faces with concavity > 80  degrees                     : 0
    faces with skewness > 4   (internal) or 20  (boundary) : 0
    faces with interpolation weights (0..1)  < 0.02        : 0
    faces with volume ratio of neighbour cells < 0.01      : 0
    faces with face twist < 0.02                           : 0
    faces on cells with determinant < 0.001                : 0
displacementMedialAxis : Iteration 2
Moving mesh using displacement scaling : min:0.5625  max:1
Checking faces in error :
    non-orthogonality > 65  degrees                        : 0
    faces with face pyramid volume < 1e-13                 : 0
    faces with face-decomposition tet quality < 1e-15      : 1
    faces with concavity > 80  degrees                     : 0
    faces with skewness > 4   (internal) or 20  (boundary) : 0
    faces with interpolation weights (0..1)  < 0.02        : 0
    faces with volume ratio of neighbour cells < 0.01      : 0
    faces with face twist < 0.02                           : 0
    faces on cells with determinant < 0.001                : 0
displacementMedialAxis : Iteration 3
displacementMedialAxis : Displacement scaling for error reduction set to 0.
Moving mesh using displacement scaling : min:0.421875  max:1
Checking faces in error :
    non-orthogonality > 65  degrees                        : 0
    faces with face pyramid volume < 1e-13                 : 0
    faces with face-decomposition tet quality < 1e-15      : 1
    faces with concavity > 80  degrees                     : 0
    faces with skewness > 4   (internal) or 20  (boundary) : 0
    faces with interpolation weights (0..1)  < 0.02        : 0
    faces with volume ratio of neighbour cells < 0.01      : 0
    faces with face twist < 0.02                           : 0
    faces on cells with determinant < 0.001                : 0
displacementMedialAxis : Iteration 4
Moving mesh using displacement scaling : min:0  max:1
Checking faces in error :
    non-orthogonality > 65  degrees                        : 0
    faces with face pyramid volume < 1e-13                 : 0
    faces with face-decomposition tet quality < 1e-15      : 0
    faces with concavity > 80  degrees                     : 0
    faces with skewness > 4   (internal) or 20  (boundary) : 0
    faces with interpolation weights (0..1)  < 0.02        : 0
    faces with volume ratio of neighbour cells < 0.01      : 0
    faces with face twist < 0.02                           : 0
    faces on cells with determinant < 0.001                : 0
displacementMedialAxis : Successfully moved mesh
displacementMedialAxis : Finished moving mesh ...
truncateDisplacement : Unextruded 0 faces due to non-consecutive vertices being extruded.
truncateDisplacement : Unextruded 0 faces due to stringed edges with inconsistent extrusion.

Setting up information for layer truncation ...
Detected 0 baffles across faceZones of type internal


Checking mesh with layer ...
Checking faces in error :
    non-orthogonality > 65  degrees                        : 0
    faces with face pyramid volume < 1e-13                 : 0
    faces with face-decomposition tet quality < 1e-15      : 6
    faces with concavity > 80  degrees                     : 0
    faces with skewness > 4   (internal) or 20  (boundary) : 0
    faces with interpolation weights (0..1)  < 0.02        : 0
    faces with volume ratio of neighbour cells < 0.01      : 0
    faces with face twist < 0.02                           : 0
    faces on cells with determinant < 0.001                : 0
Detected 6 illegal faces (concave, zero area or negative cell pyramid volume)
Extruding 59593 out of 59891 faces (99.5024%). Removed extrusion at 6 faces.
Added 284604 out of 299455 cells (95.0407%).


Layer addition iteration 3
--------------------------

Determining displacement for added points according to pointNormal ...
Detected 0 points with point normal pointing through faces.
Reset displacement at 0 points to average of surrounding points.

displacementMedialAxis : Smoothing using Medial Axis ...
displacementMedialAxis : Reducing layer thickness at 11570 nodes where thickness to medial axis distance is large 
displacementMedialAxis : Removing isolated regions ...
- if partially extruded faces make angle < 75
- if exclusively surrounded by non-extruded faces
displacementMedialAxis : Number of isolated points extrusion stopped : 54
fieldSmoother : Smoothing field ...
    Iteration 0   residual 6.91837e-05
displacementMedialAxis : Moving mesh ...
displacementMedialAxis : Iteration 0
Moving mesh using displacement scaling : min:1  max:1
Checking faces in error :
    non-orthogonality > 65  degrees                        : 3
    faces with face pyramid volume < 1e-13                 : 0
    faces with face-decomposition tet quality < 1e-15      : 0
    faces with concavity > 80  degrees                     : 0
    faces with skewness > 4   (internal) or 20  (boundary) : 0
    faces with interpolation weights (0..1)  < 0.02        : 0
    faces with volume ratio of neighbour cells < 0.01      : 0
    faces with face twist < 0.02                           : 0
    faces on cells with determinant < 0.001                : 0
displacementMedialAxis : Iteration 1
Moving mesh using displacement scaling : min:0.75  max:1
Checking faces in error :
    non-orthogonality > 65  degrees                        : 0
    faces with face pyramid volume < 1e-13                 : 0
    faces with face-decomposition tet quality < 1e-15      : 0
    faces with concavity > 80  degrees                     : 0
    faces with skewness > 4   (internal) or 20  (boundary) : 0
    faces with interpolation weights (0..1)  < 0.02        : 0
    faces with volume ratio of neighbour cells < 0.01      : 0
    faces with face twist < 0.02                           : 0
    faces on cells with determinant < 0.001                : 0
displacementMedialAxis : Successfully moved mesh
displacementMedialAxis : Finished moving mesh ...
truncateDisplacement : Unextruded 0 faces due to non-consecutive vertices being extruded.
truncateDisplacement : Unextruded 0 faces due to stringed edges with inconsistent extrusion.

Setting up information for layer truncation ...
Detected 0 baffles across faceZones of type internal


Checking mesh with layer ...
Checking faces in error :
    non-orthogonality > 65  degrees                        : 0
    faces with face pyramid volume < 1e-13                 : 0
    faces with face-decomposition tet quality < 1e-15      : 0
    faces with concavity > 80  degrees                     : 0
    faces with skewness > 4   (internal) or 20  (boundary) : 0
    faces with interpolation weights (0..1)  < 0.02        : 0
    faces with volume ratio of neighbour cells < 0.01      : 0
    faces with face twist < 0.02                           : 0
    faces on cells with determinant < 0.001                : 0
Detected 0 illegal faces (concave, zero area or negative cell pyramid volume)
Extruding 59583 out of 59891 faces (99.4857%). Removed extrusion at 0 faces.
Added 283583 out of 299455 cells (94.6997%).
Edge intersection testing:
    Number of edges             : 2717933
    Number of edges to retest   : 0
    Number of intersected edges : 223215
Mesh with layers : cells:882734  faces:2717933  points:952904  unbalance:0.167156

patch        faces        layers        overall thickness
                      target   mesh     [m]       [%]
-----        -----    -----    ----     ---       ---
frontAndBack 4964     5        4.92     0.0239    75.5    
lowerWall    12709    5        4.96     0.00806   83.2    
upperWall    2482     5        5        0.0226    71.4    
ahmedBody    39736    5        4.62     0.00178   89.9    


Doing final balancing
---------------------

Writing 283583 added cells to cellSet addedCells
Writing 223949 faces inside added layer to faceSet layerFaces

Writing fields with layer information:
    nSurfaceLayers    : actual number of layers
    thickness         : overall layer thickness
    thicknessFraction : overall layer thickness (fraction of desired thickness)

Layer mesh : cells:882734  faces:2717933  points:952904  unbalance:0.00545804
Cells per refinement level:
    0	81007
    1	43708
    2	117214
    3	317326
    4	323479
Writing mesh to time constant
Wrote mesh in = 0.09 s.
Layers added in = 15.65 s.
Checking final mesh ...
Checking faces in error :
    non-orthogonality > 65  degrees                        : 0
    faces with face pyramid volume < 1e-13                 : 0
    faces with face-decomposition tet quality < 1e-15      : 0
    faces with concavity > 80  degrees                     : 0
    faces with skewness > 4   (internal) or 20  (boundary) : 0
    faces with interpolation weights (0..1)  < 0.02        : 0
    faces with volume ratio of neighbour cells < 0.01      : 0
    faces with face twist < 0.02                           : 0
    faces on cells with determinant < 0.001                : 0
Finished meshing without any errors
Finished meshing in = 49.86 s.
End

Finalising parallel run
