/*---------------------------------------------------------------------------*\
| =========                 |                                                 |
| \\      /  F ield         | OpenFOAM: The Open Source CFD Toolbox           |
|  \\    /   O peration     | Version:  2406                                  |
|   \\  /    A nd           | Website:  www.openfoam.com                      |
|    \\/     M anipulation  |                                                 |
\*---------------------------------------------------------------------------*/
Build  : _630d60de3b-20240620 OPENFOAM=2406 version=v2406
Arch   : "LSB;label=32;scalar=64"
Exec   : blockMesh
Date   : Nov 21 2024
Time   : 14:20:31
Host   : MacBook-Air-de-Denis.local
PID    : 34430
I/O    : uncollated
Case   : /Users/df/Documents/3A/POLI48/OpenFoamSim/ahmedBetterV1
nProcs : 1
trapFpe: Floating point exception trapping enabled (FOAM_SIGFPE).
fileModificationChecking : Monitoring run-time modified files using timeStampMaster (fileModificationSkew 5, maxFileModificationPolls 20)
allowSystemOperations : Allowing user-supplied system call operations

// * * * * * * * * * * * * * * * * * * * * * * * * * * * * * * * * * * * * * //
Create time

Creating block mesh from "system/blockMeshDict"
Creating block edges
No non-planar block faces defined
Creating topology blocks

Creating topology patches - from boundary section

Creating block mesh topology

Check topology

	Basic statistics
		Number of internal faces : 0
		Number of boundary faces : 6
		Number of defined boundary faces : 6
		Number of undefined boundary faces : 0
	Checking patch -> block consistency

Creating block offsets
Creating merge list (topological search)...

Creating polyMesh from blockMesh
Creating points with scale (1 1 1)
    Block 0 cell size :
        i : 0.0294521 .. 0.0294521
        j : 0.0294118 .. 0.0294118
        k : 0.0294118 .. 0.0294118

Creating cells
Creating patches
No patch pairs to merge

Writing polyMesh with 0 cellZones
----------------
Mesh Information
----------------
  boundingBox: (-1.3 -0.25 -0.0218) (3 0.25 0.4782)
  nPoints: 47628
  nCells: 42194
  nFaces: 131835
  nInternalFaces: 121329
----------------
Patches
----------------
  patch 0 (start: 121329 size: 4964) name: frontAndBack
  patch 1 (start: 126293 size: 289) name: inlet
  patch 2 (start: 126582 size: 289) name: outlet
  patch 3 (start: 126871 size: 2482) name: lowerWall
  patch 4 (start: 129353 size: 2482) name: upperWall

End

