/*---------------------------------------------------------------------------*\
| =========                 |                                                 |
| \\      /  F ield         | OpenFOAM: The Open Source CFD Toolbox           |
|  \\    /   O peration     | Version:  2406                                  |
|   \\  /    A nd           | Website:  www.openfoam.com                      |
|    \\/     M anipulation  |                                                 |
\*---------------------------------------------------------------------------*/
Build  : _630d60de3b-20240620 OPENFOAM=2406 version=v2406
Arch   : "LSB;label=32;scalar=64"
Exec   : decomposePar -latestTime
Date   : Nov 21 2024
Time   : 14:21:21
Host   : MacBook-Air-de-Denis.local
PID    : 34618
I/O    : uncollated
Case   : /Users/df/Documents/3A/POLI48/OpenFoamSim/ahmedBetterV1
nProcs : 1
trapFpe: Floating point exception trapping enabled (FOAM_SIGFPE).
fileModificationChecking : Monitoring run-time modified files using timeStampMaster (fileModificationSkew 5, maxFileModificationPolls 20)
allowSystemOperations : Allowing user-supplied system call operations

// * * * * * * * * * * * * * * * * * * * * * * * * * * * * * * * * * * * * * //
Create time



Decomposing mesh

Create mesh

Calculating distribution of cells
Decomposition method scotch [4] (region region0)

Finished decomposition in 1.54 s

Calculating original mesh data

Distributing cells to processors

Distributing faces to processors

Distributing points to processors

Constructing processor meshes

Processor 0
    Number of cells = 217975
    Number of points = 234220
    Number of faces shared with processor 1 = 5287
    Number of faces shared with processor 2 = 158
    Number of faces shared with processor 3 = 184
    Number of processor patches = 3
    Number of processor faces = 5629
    Number of boundary faces = 10904

Processor 1
    Number of cells = 218168
    Number of points = 238029
    Number of faces shared with processor 0 = 5287
    Number of faces shared with processor 2 = 3147
    Number of faces shared with processor 3 = 2826
    Number of processor patches = 3
    Number of processor faces = 11260
    Number of boundary faces = 9701

Processor 2
    Number of cells = 217344
    Number of points = 244311
    Number of faces shared with processor 0 = 158
    Number of faces shared with processor 1 = 3147
    Number of faces shared with processor 3 = 6895
    Number of processor patches = 3
    Number of processor faces = 10200
    Number of boundary faces = 23411

Processor 3
    Number of cells = 218169
    Number of points = 244352
    Number of faces shared with processor 0 = 184
    Number of faces shared with processor 1 = 2826
    Number of faces shared with processor 2 = 6895
    Number of processor patches = 3
    Number of processor faces = 9905
    Number of boundary faces = 15047

Number of processor faces = 18497
Max number of cells = 218169 (0.117019% above average 217914)
Max number of processor patches = 3 (0% above average 3)
Max number of faces between processors = 11260 (21.7495% above average 9248.5)

Time = 0

Processor 0: field transfer
Processor 1: field transfer
Processor 2: field transfer
Processor 3: field transfer

End

