/*---------------------------------------------------------------------------*\
| =========                 |                                                 |
| \\      /  F ield         | OpenFOAM: The Open Source CFD Toolbox           |
|  \\    /   O peration     | Version:  2406                                  |
|   \\  /    A nd           | Website:  www.openfoam.com                      |
|    \\/     M anipulation  |                                                 |
\*---------------------------------------------------------------------------*/
Build  : _630d60de3b-20240620 OPENFOAM=2406 version=v2406
Arch   : "LSB;label=32;scalar=64"
Exec   : simpleFoam -parallel
Date   : Nov 21 2024
Time   : 14:21:23
Host   : MacBook-Air-de-Denis.local
PID    : 34632
I/O    : uncollated
Case   : /Users/df/Documents/3A/POLI48/OpenFoamSim/ahmedBetterV1
nProcs : 4
Hosts  :
(
    (MacBook-Air-de-Denis.local 4)
)
Pstream initialized with:
    floatTransfer      : false
    maxCommsSize       : 0
    nProcsSimpleSum    : 0
    nonBlockingExchange: 0 (tuning: 0)
    exchange algorithm : 0
    commsType          : nonBlocking
    polling iterations : 0
trapFpe: Floating point exception trapping enabled (FOAM_SIGFPE).
fileModificationChecking : Monitoring run-time modified files using timeStampMaster (fileModificationSkew 5, maxFileModificationPolls 20)
allowSystemOperations : Allowing user-supplied system call operations

// * * * * * * * * * * * * * * * * * * * * * * * * * * * * * * * * * * * * * //
Create time

Create mesh for time = 0


SIMPLE: no convergence criteria found. Calculations will run for 500 steps.

Reading field p

Reading field U

Reading/calculating face flux field phi

Selecting incompressible transport model Newtonian
Selecting turbulence model type RAS
Selecting RAS turbulence model kOmegaSST
Selecting patchDistMethod meshWave
RAS
{
    RASModel        kOmegaSST;
    turbulence      on;
    printCoeffs     on;
    alphaK1         0.85;
    alphaK2         1;
    alphaOmega1     0.5;
    alphaOmega2     0.856;
    gamma1          0.555556;
    gamma2          0.44;
    beta1           0.075;
    beta2           0.0828;
    betaStar        0.09;
    a1              0.31;
    b1              1;
    c1              10;
    F3              false;
    decayControl    false;
    kInf            0;
    omegaInf        0;
}

No MRF models present

No finite volume options present

Starting time loop

Sampled surface:
    xNormal -> vtk
        sampledCuttingPlane: xNormal : plane:(1 0 0) (0.09 0 0) offsets:(0)
    yNormal_0 -> vtk
        sampledCuttingPlane: yNormal_0 : plane:(0 1 0) (0 0 0) offsets:(0)
    zNormal_0 -> vtk
        sampledCuttingPlane: zNormal_0 : plane:(0 0 1) (0 0 0) offsets:(0)
    zNormal_0_1 -> vtk
        sampledCuttingPlane: zNormal_0_1 : plane:(0 0 1) (0 0 0.1) offsets:(0)
    zNormal_0_05 -> vtk
        sampledCuttingPlane: zNormal_0_05 : plane:(0 0 1) (0 0 0.05) offsets:(0)

forces forces:
    rho: rhoInf
    Freestream density (rhoInf) set to 1
    Not including porosity effects

fieldAverage fieldAverage:
    Restarting averaging for fields:
        U: starting averaging at time 0
        p: starting averaging at time 0

Time = 1

smoothSolver:  Solving for Ux, Initial residual = 1, Final residual = 0.0958204, No Iterations 12
smoothSolver:  Solving for Uy, Initial residual = 1, Final residual = 0.0957025, No Iterations 12
smoothSolver:  Solving for Uz, Initial residual = 1, Final residual = 0.0817155, No Iterations 13
GAMG:  Solving for p, Initial residual = 1, Final residual = 0.0066029, No Iterations 10
GAMG:  Solving for p, Initial residual = 0.0569876, Final residual = 0.000493642, No Iterations 4
GAMG:  Solving for p, Initial residual = 0.00419448, Final residual = 2.79931e-05, No Iterations 6
time step continuity errors : sum local = 0.000370936, global = -4.39661e-06, cumulative = -4.39661e-06
smoothSolver:  Solving for omega, Initial residual = 0.144504, Final residual = 0.00969164, No Iterations 3
bounding omega, min: -102.441 max: 476614 average: 5630.59
smoothSolver:  Solving for k, Initial residual = 1, Final residual = 0.0603436, No Iterations 4
ExecutionTime = 2.43 s  ClockTime = 3 s

forces forces write:
    Sum of forces
        Total    : (144.353 0.00482641 19.5004)
        Pressure : (144.163 0.00484615 19.5017)
        Viscous  : (0.190944 -1.97428e-05 -0.00132402)
    Sum of moments
        Total    : (-0.00970017 -193.435 0.0628641)
        Pressure : (-0.00970223 -193.458 0.0630359)
        Viscous  : (2.06023e-06 0.0226599 -0.000171804)
    writing force and moment files.

Time = 2

smoothSolver:  Solving for Ux, Initial residual = 0.368485, Final residual = 0.0301766, No Iterations 11
smoothSolver:  Solving for Uy, Initial residual = 0.784048, Final residual = 0.0675609, No Iterations 11
smoothSolver:  Solving for Uz, Initial residual = 0.613647, Final residual = 0.0520096, No Iterations 11
GAMG:  Solving for p, Initial residual = 0.248723, Final residual = 0.00193588, No Iterations 6
GAMG:  Solving for p, Initial residual = 0.0131109, Final residual = 0.000126144, No Iterations 9
GAMG:  Solving for p, Initial residual = 0.00175835, Final residual = 1.39888e-05, No Iterations 12
time step continuity errors : sum local = 0.00953062, global = -0.000255263, cumulative = -0.00025966
smoothSolver:  Solving for omega, Initial residual = 0.11769, Final residual = 0.00880992, No Iterations 5
smoothSolver:  Solving for k, Initial residual = 0.7974, Final residual = 0.0636685, No Iterations 3
ExecutionTime = 4.07 s  ClockTime = 5 s

forces forces write:
    Sum of forces
        Total    : (33.1008 0.108631 6.14767)
        Pressure : (40.1105 0.108509 6.07685)
        Viscous  : (-7.00975 0.000121914 0.0708208)
    Sum of moments
        Total    : (-0.0069258 -61.5489 1.10045)
        Pressure : (-0.00712086 -60.5051 1.09921)
        Viscous  : (0.000195056 -1.04377 0.00123481)
    writing force and moment files.

Time = 3

smoothSolver:  Solving for Ux, Initial residual = 0.386319, Final residual = 0.0292195, No Iterations 7
smoothSolver:  Solving for Uy, Initial residual = 0.599674, Final residual = 0.051086, No Iterations 8
smoothSolver:  Solving for Uz, Initial residual = 0.583476, Final residual = 0.0437604, No Iterations 8
GAMG:  Solving for p, Initial residual = 0.566224, Final residual = 0.00564299, No Iterations 8
GAMG:  Solving for p, Initial residual = 0.0189382, Final residual = 0.000149862, No Iterations 10
GAMG:  Solving for p, Initial residual = 0.00203984, Final residual = 1.83805e-05, No Iterations 13
time step continuity errors : sum local = 0.00524866, global = 6.24396e-05, cumulative = -0.00019722
smoothSolver:  Solving for omega, Initial residual = 0.0505308, Final residual = 0.00265413, No Iterations 4
smoothSolver:  Solving for k, Initial residual = 0.119086, Final residual = 0.0102891, No Iterations 3
ExecutionTime = 5.7 s  ClockTime = 6 s

forces forces write:
    Sum of forces
        Total    : (214.648 0.339894 40.1423)
        Pressure : (216.157 0.340537 40.2189)
        Viscous  : (-1.50884 -0.000643264 -0.0765491)
    Sum of moments
        Total    : (-0.00973896 -398.87 3.43916)
        Pressure : (-0.0100642 -399.565 3.44583)
        Viscous  : (0.000325212 0.695325 -0.0066693)
    writing force and moment files.

Time = 4

smoothSolver:  Solving for Ux, Initial residual = 0.414744, Final residual = 0.0393399, No Iterations 6
smoothSolver:  Solving for Uy, Initial residual = 0.555658, Final residual = 0.0487708, No Iterations 7
smoothSolver:  Solving for Uz, Initial residual = 0.517753, Final residual = 0.0515738, No Iterations 6
GAMG:  Solving for p, Initial residual = 0.0822128, Final residual = 0.00069243, No Iterations 9
GAMG:  Solving for p, Initial residual = 0.016076, Final residual = 0.000140354, No Iterations 8
GAMG:  Solving for p, Initial residual = 0.00140118, Final residual = 1.14991e-05, No Iterations 14
time step continuity errors : sum local = 0.00346614, global = 0.000131553, cumulative = -6.56675e-05
smoothSolver:  Solving for omega, Initial residual = 0.037555, Final residual = 0.00228318, No Iterations 3
smoothSolver:  Solving for k, Initial residual = 0.0729897, Final residual = 0.00583316, No Iterations 3
ExecutionTime = 7.59 s  ClockTime = 8 s

forces forces write:
    Sum of forces
        Total    : (33.5763 0.329939 15.2231)
        Pressure : (34.0353 0.329592 15.258)
        Viscous  : (-0.45899 0.0003475 -0.0348833)
    Sum of moments
        Total    : (-0.00779673 -152.61 3.30796)
        Pressure : (-0.00790689 -152.927 3.30423)
        Viscous  : (0.000110169 0.317711 0.00372667)
    writing force and moment files.

Time = 5

smoothSolver:  Solving for Ux, Initial residual = 0.294397, Final residual = 0.0288871, No Iterations 7
smoothSolver:  Solving for Uy, Initial residual = 0.465499, Final residual = 0.0446411, No Iterations 7
smoothSolver:  Solving for Uz, Initial residual = 0.383997, Final residual = 0.0330983, No Iterations 7
GAMG:  Solving for p, Initial residual = 0.0949696, Final residual = 0.000798535, No Iterations 9
GAMG:  Solving for p, Initial residual = 0.0181703, Final residual = 0.000161137, No Iterations 10
GAMG:  Solving for p, Initial residual = 0.00159957, Final residual = 1.47138e-05, No Iterations 14
time step continuity errors : sum local = 0.00475901, global = 0.00013011, cumulative = 6.44423e-05
smoothSolver:  Solving for omega, Initial residual = 0.026786, Final residual = 0.00179368, No Iterations 3
smoothSolver:  Solving for k, Initial residual = 0.0602778, Final residual = 0.00506743, No Iterations 3
ExecutionTime = 9.26 s  ClockTime = 10 s

forces forces write:
    Sum of forces
        Total    : (-1.72077 -0.0243638 8.62488)
        Pressure : (-1.54421 -0.0249122 8.64134)
        Viscous  : (-0.176564 0.000548389 -0.0164606)
    Sum of moments
        Total    : (0.0244171 -87.7812 -0.312278)
        Pressure : (0.0243049 -87.9211 -0.318268)
        Viscous  : (0.000112209 0.139875 0.00598986)
    writing force and moment files.

Time = 6

smoothSolver:  Solving for Ux, Initial residual = 0.241491, Final residual = 0.0238264, No Iterations 7
smoothSolver:  Solving for Uy, Initial residual = 0.418801, Final residual = 0.0355886, No Iterations 7
smoothSolver:  Solving for Uz, Initial residual = 0.335643, Final residual = 0.0294113, No Iterations 7
GAMG:  Solving for p, Initial residual = 0.119522, Final residual = 0.00109648, No Iterations 9
GAMG:  Solving for p, Initial residual = 0.0198561, Final residual = 0.000175938, No Iterations 12
GAMG:  Solving for p, Initial residual = 0.00203269, Final residual = 1.87264e-05, No Iterations 16
time step continuity errors : sum local = 0.0061692, global = 8.22689e-05, cumulative = 0.000146711
smoothSolver:  Solving for omega, Initial residual = 0.0222625, Final residual = 0.00146251, No Iterations 3
smoothSolver:  Solving for k, Initial residual = 0.0621711, Final residual = 0.00486878, No Iterations 3
ExecutionTime = 11.03 s  ClockTime = 12 s

forces forces write:
    Sum of forces
        Total    : (1.39206 0.0768679 7.11491)
        Pressure : (1.42123 0.0749929 7.1351)
        Viscous  : (-0.0291688 0.00187498 -0.0201945)
    Sum of moments
        Total    : (0.020637 -72.9072 0.718647)
        Pressure : (0.0205756 -73.0889 0.699166)
        Viscous  : (6.13269e-05 0.181748 0.0194813)
    writing force and moment files.

Time = 7

smoothSolver:  Solving for Ux, Initial residual = 0.229562, Final residual = 0.0175964, No Iterations 8
smoothSolver:  Solving for Uy, Initial residual = 0.385709, Final residual = 0.0339698, No Iterations 7
smoothSolver:  Solving for Uz, Initial residual = 0.312706, Final residual = 0.0288058, No Iterations 7
GAMG:  Solving for p, Initial residual = 0.128966, Final residual = 0.000958482, No Iterations 9
GAMG:  Solving for p, Initial residual = 0.0169853, Final residual = 0.00013946, No Iterations 10
GAMG:  Solving for p, Initial residual = 0.00158756, Final residual = 1.58734e-05, No Iterations 14
time step continuity errors : sum local = 0.00532244, global = 7.27884e-05, cumulative = 0.0002195
smoothSolver:  Solving for omega, Initial residual = 0.0200893, Final residual = 0.00120253, No Iterations 3
smoothSolver:  Solving for k, Initial residual = 0.0628691, Final residual = 0.00461857, No Iterations 3
ExecutionTime = 13.37 s  ClockTime = 16 s

forces forces write:
    Sum of forces
        Total    : (6.7502 0.0975354 8.06297)
        Pressure : (6.64993 0.0954015 8.0844)
        Viscous  : (0.100264 0.00213397 -0.0214242)
    Sum of moments
        Total    : (0.01621 -82.264 0.947118)
        Pressure : (0.0161889 -82.4614 0.924638)
        Viscous  : (2.10886e-05 0.197432 0.0224792)
    writing force and moment files.

Time = 8

smoothSolver:  Solving for Ux, Initial residual = 0.223662, Final residual = 0.0172402, No Iterations 8
smoothSolver:  Solving for Uy, Initial residual = 0.374174, Final residual = 0.0333017, No Iterations 7
smoothSolver:  Solving for Uz, Initial residual = 0.304259, Final residual = 0.0280109, No Iterations 7
GAMG:  Solving for p, Initial residual = 0.125083, Final residual = 0.00101054, No Iterations 9
GAMG:  Solving for p, Initial residual = 0.0158596, Final residual = 0.000135344, No Iterations 10
GAMG:  Solving for p, Initial residual = 0.00144711, Final residual = 1.40093e-05, No Iterations 14
time step continuity errors : sum local = 0.00473758, global = 6.11592e-05, cumulative = 0.000280659
smoothSolver:  Solving for omega, Initial residual = 0.0186007, Final residual = 0.00105602, No Iterations 3
smoothSolver:  Solving for k, Initial residual = 0.0628194, Final residual = 0.00445914, No Iterations 3
ExecutionTime = 15.83 s  ClockTime = 20 s

forces forces write:
    Sum of forces
        Total    : (6.54133 0.208513 6.81434)
        Pressure : (6.42187 0.207464 6.81297)
        Viscous  : (0.119457 0.00104898 0.00136815)
    Sum of moments
        Total    : (0.00518278 -68.8377 2.08446)
        Pressure : (0.00510058 -68.8045 2.0728)
        Viscous  : (8.22015e-05 -0.0332254 0.0116568)
    writing force and moment files.

Time = 9

smoothSolver:  Solving for Ux, Initial residual = 0.219339, Final residual = 0.0211096, No Iterations 7
smoothSolver:  Solving for Uy, Initial residual = 0.366485, Final residual = 0.0306013, No Iterations 7
smoothSolver:  Solving for Uz, Initial residual = 0.293585, Final residual = 0.0252169, No Iterations 7
GAMG:  Solving for p, Initial residual = 0.126517, Final residual = 0.000967477, No Iterations 9
GAMG:  Solving for p, Initial residual = 0.015326, Final residual = 0.000139805, No Iterations 10
GAMG:  Solving for p, Initial residual = 0.001446, Final residual = 1.24001e-05, No Iterations 15
time step continuity errors : sum local = 0.00421051, global = 3.484e-05, cumulative = 0.000315499
smoothSolver:  Solving for omega, Initial residual = 0.0167102, Final residual = 0.000932078, No Iterations 3
smoothSolver:  Solving for k, Initial residual = 0.0587532, Final residual = 0.0039964, No Iterations 3
ExecutionTime = 18.15 s  ClockTime = 23 s

forces forces write:
    Sum of forces
        Total    : (3.11832 0.271408 4.11484)
        Pressure : (3.00549 0.271269 4.10321)
        Viscous  : (0.112831 0.000139023 0.0116285)
    Sum of moments
        Total    : (-0.00440613 -40.8999 2.73088)
        Pressure : (-0.00469206 -40.7634 2.7286)
        Viscous  : (0.000285933 -0.136442 0.00228393)
    writing force and moment files.

Time = 10

smoothSolver:  Solving for Ux, Initial residual = 0.212476, Final residual = 0.0197652, No Iterations 7
smoothSolver:  Solving for Uy, Initial residual = 0.357122, Final residual = 0.0284335, No Iterations 7
smoothSolver:  Solving for Uz, Initial residual = 0.282841, Final residual = 0.0227717, No Iterations 7
GAMG:  Solving for p, Initial residual = 0.124772, Final residual = 0.000943846, No Iterations 9
GAMG:  Solving for p, Initial residual = 0.0145255, Final residual = 0.000122675, No Iterations 11
GAMG:  Solving for p, Initial residual = 0.0014063, Final residual = 1.25491e-05, No Iterations 16
time step continuity errors : sum local = 0.00444747, global = 4.26306e-05, cumulative = 0.000358129
smoothSolver:  Solving for omega, Initial residual = 0.0152734, Final residual = 0.000904573, No Iterations 3
smoothSolver:  Solving for k, Initial residual = 0.0567667, Final residual = 0.00385707, No Iterations 3
ExecutionTime = 20.18 s  ClockTime = 25 s

forces forces write:
    Sum of forces
        Total    : (-0.343267 0.246708 -0.198476)
        Pressure : (-0.384077 0.245499 -0.208085)
        Viscous  : (0.0408108 0.00120883 0.00960929)
    Sum of moments
        Total    : (-0.0106978 3.23834 2.48762)
        Pressure : (-0.0109842 3.3557 2.4745)
        Viscous  : (0.000286329 -0.117366 0.0131161)
    writing force and moment files.

Time = 11

smoothSolver:  Solving for Ux, Initial residual = 0.203434, Final residual = 0.018558, No Iterations 7
smoothSolver:  Solving for Uy, Initial residual = 0.342209, Final residual = 0.0267988, No Iterations 7
smoothSolver:  Solving for Uz, Initial residual = 0.271108, Final residual = 0.0205931, No Iterations 7
GAMG:  Solving for p, Initial residual = 0.118753, Final residual = 0.000903659, No Iterations 9
GAMG:  Solving for p, Initial residual = 0.0129261, Final residual = 0.000122603, No Iterations 11
GAMG:  Solving for p, Initial residual = 0.00134128, Final residual = 1.2047e-05, No Iterations 17
time step continuity errors : sum local = 0.00446651, global = 1.6381e-05, cumulative = 0.00037451
smoothSolver:  Solving for omega, Initial residual = 0.0141229, Final residual = 0.00085704, No Iterations 3
smoothSolver:  Solving for k, Initial residual = 0.0558807, Final residual = 0.00376393, No Iterations 3
ExecutionTime = 22.28 s  ClockTime = 27 s

forces forces write:
    Sum of forces
        Total    : (-1.98193 0.0734295 -3.94722)
        Pressure : (-1.99531 0.0761175 -3.93994)
        Viscous  : (0.0133865 -0.00268805 -0.00728901)
    Sum of moments
        Total    : (-0.0093262 41.3822 0.731434)
        Pressure : (-0.00996302 41.329 0.757876)
        Viscous  : (0.000636822 0.0532815 -0.0264411)
    writing force and moment files.

Time = 12

smoothSolver:  Solving for Ux, Initial residual = 0.190164, Final residual = 0.0168784, No Iterations 7
smoothSolver:  Solving for Uy, Initial residual = 0.3333, Final residual = 0.026092, No Iterations 7
smoothSolver:  Solving for Uz, Initial residual = 0.254844, Final residual = 0.0252306, No Iterations 6
GAMG:  Solving for p, Initial residual = 0.111874, Final residual = 0.000885689, No Iterations 9
GAMG:  Solving for p, Initial residual = 0.0118235, Final residual = 0.000111602, No Iterations 11
GAMG:  Solving for p, Initial residual = 0.0012495, Final residual = 1.22856e-05, No Iterations 16
time step continuity errors : sum local = 0.00451644, global = -3.63518e-05, cumulative = 0.000338159
smoothSolver:  Solving for omega, Initial residual = 0.0129736, Final residual = 0.000767216, No Iterations 3
smoothSolver:  Solving for k, Initial residual = 0.0546593, Final residual = 0.00357656, No Iterations 3
ExecutionTime = 24.15 s  ClockTime = 29 s

forces forces write:
    Sum of forces
        Total    : (-2.39463 -0.0936937 -6.58983)
        Pressure : (-2.39341 -0.0892695 -6.54631)
        Viscous  : (-0.00122214 -0.00442418 -0.0435197)
    Sum of moments
        Total    : (-0.00760606 68.1085 -0.959476)
        Pressure : (-0.0083454 67.6873 -0.915197)
        Viscous  : (0.000739341 0.421158 -0.0442791)
    writing force and moment files.

Time = 13

smoothSolver:  Solving for Ux, Initial residual = 0.176143, Final residual = 0.0153401, No Iterations 7
smoothSolver:  Solving for Uy, Initial residual = 0.319125, Final residual = 0.0247713, No Iterations 7
smoothSolver:  Solving for Uz, Initial residual = 0.237857, Final residual = 0.0232722, No Iterations 6
GAMG:  Solving for p, Initial residual = 0.105139, Final residual = 0.000833859, No Iterations 9
GAMG:  Solving for p, Initial residual = 0.0106378, Final residual = 0.000105744, No Iterations 11
GAMG:  Solving for p, Initial residual = 0.00111023, Final residual = 1.09322e-05, No Iterations 16
time step continuity errors : sum local = 0.00397618, global = -3.23757e-05, cumulative = 0.000305783
smoothSolver:  Solving for omega, Initial residual = 0.0118445, Final residual = 0.000682995, No Iterations 3
smoothSolver:  Solving for k, Initial residual = 0.053418, Final residual = 0.00332363, No Iterations 3
ExecutionTime = 25.98 s  ClockTime = 31 s

forces forces write:
    Sum of forces
        Total    : (-1.98836 -0.257757 -7.7661)
        Pressure : (-2.01003 -0.253431 -7.6919)
        Viscous  : (0.021664 -0.00432668 -0.074199)
    Sum of moments
        Total    : (-0.000724408 79.8743 -2.62319)
        Pressure : (-0.00143888 79.1397 -2.57967)
        Viscous  : (0.000714471 0.734635 -0.0435183)
    writing force and moment files.

Time = 14

smoothSolver:  Solving for Ux, Initial residual = 0.163743, Final residual = 0.0140649, No Iterations 7
smoothSolver:  Solving for Uy, Initial residual = 0.29992, Final residual = 0.02299, No Iterations 7
smoothSolver:  Solving for Uz, Initial residual = 0.220232, Final residual = 0.0214936, No Iterations 6
GAMG:  Solving for p, Initial residual = 0.0989022, Final residual = 0.000951076, No Iterations 8
GAMG:  Solving for p, Initial residual = 0.00977306, Final residual = 9.08912e-05, No Iterations 12
GAMG:  Solving for p, Initial residual = 0.00101523, Final residual = 9.17711e-06, No Iterations 16
time step continuity errors : sum local = 0.00323869, global = -2.36398e-05, cumulative = 0.000282143
smoothSolver:  Solving for omega, Initial residual = 0.0109832, Final residual = 0.000615266, No Iterations 3
smoothSolver:  Solving for k, Initial residual = 0.0515273, Final residual = 0.0029418, No Iterations 3
ExecutionTime = 27.72 s  ClockTime = 33 s

forces forces write:
    Sum of forces
        Total    : (-1.4624 -0.373702 -7.87091)
        Pressure : (-1.4926 -0.366193 -7.78441)
        Viscous  : (0.0302047 -0.00750928 -0.0864974)
    Sum of moments
        Total    : (0.00598766 80.7534 -3.79754)
        Pressure : (0.00513497 79.8906 -3.72168)
        Viscous  : (0.000852687 0.862812 -0.0758685)
    writing force and moment files.

Time = 15

smoothSolver:  Solving for Ux, Initial residual = 0.153304, Final residual = 0.0130217, No Iterations 7
smoothSolver:  Solving for Uy, Initial residual = 0.283346, Final residual = 0.0218106, No Iterations 7
smoothSolver:  Solving for Uz, Initial residual = 0.201947, Final residual = 0.0200011, No Iterations 6
GAMG:  Solving for p, Initial residual = 0.0972739, Final residual = 0.000785198, No Iterations 8
GAMG:  Solving for p, Initial residual = 0.00899359, Final residual = 8.8298e-05, No Iterations 11
GAMG:  Solving for p, Initial residual = 0.000908029, Final residual = 8.61918e-06, No Iterations 15
time step continuity errors : sum local = 0.00299063, global = -1.99185e-05, cumulative = 0.000262225
smoothSolver:  Solving for omega, Initial residual = 0.0102154, Final residual = 0.000564241, No Iterations 3
smoothSolver:  Solving for k, Initial residual = 0.0493331, Final residual = 0.00265201, No Iterations 3
ExecutionTime = 29.46 s  ClockTime = 35 s

forces forces write:
    Sum of forces
        Total    : (-0.78678 -0.465298 -7.43599)
        Pressure : (-0.839012 -0.458964 -7.3541)
        Viscous  : (0.0522313 -0.00633393 -0.0818882)
    Sum of moments
        Total    : (0.0146224 76.1356 -4.72536)
        Pressure : (0.0138934 75.3152 -4.66169)
        Viscous  : (0.000729074 0.82043 -0.0636691)
    writing force and moment files.

Time = 16

smoothSolver:  Solving for Ux, Initial residual = 0.142874, Final residual = 0.0118631, No Iterations 7
smoothSolver:  Solving for Uy, Initial residual = 0.27596, Final residual = 0.0213696, No Iterations 7
smoothSolver:  Solving for Uz, Initial residual = 0.188388, Final residual = 0.0183279, No Iterations 6
GAMG:  Solving for p, Initial residual = 0.0960414, Final residual = 0.00072326, No Iterations 8
GAMG:  Solving for p, Initial residual = 0.00845487, Final residual = 7.44329e-05, No Iterations 11
GAMG:  Solving for p, Initial residual = 0.000824354, Final residual = 7.15066e-06, No Iterations 15
time step continuity errors : sum local = 0.00244004, global = -1.89756e-05, cumulative = 0.000243249
smoothSolver:  Solving for omega, Initial residual = 0.00941945, Final residual = 0.000523855, No Iterations 3
smoothSolver:  Solving for k, Initial residual = 0.0478, Final residual = 0.00239919, No Iterations 3
ExecutionTime = 31.2 s  ClockTime = 36 s

forces forces write:
    Sum of forces
        Total    : (-0.340433 -0.590124 -6.81521)
        Pressure : (-0.391683 -0.581561 -6.75121)
        Viscous  : (0.05125 -0.00856364 -0.0640012)
    Sum of moments
        Total    : (0.0245418 69.6133 -5.9895)
        Pressure : (0.0236755 68.9715 -5.90335)
        Viscous  : (0.000866327 0.641755 -0.0861521)
    writing force and moment files.

Time = 17

smoothSolver:  Solving for Ux, Initial residual = 0.132392, Final residual = 0.010727, No Iterations 7
smoothSolver:  Solving for Uy, Initial residual = 0.273462, Final residual = 0.0212072, No Iterations 7
smoothSolver:  Solving for Uz, Initial residual = 0.177203, Final residual = 0.0166539, No Iterations 6
GAMG:  Solving for p, Initial residual = 0.091455, Final residual = 0.000788335, No Iterations 8
GAMG:  Solving for p, Initial residual = 0.0081549, Final residual = 6.74968e-05, No Iterations 12
GAMG:  Solving for p, Initial residual = 0.000790708, Final residual = 7.25975e-06, No Iterations 15
time step continuity errors : sum local = 0.00246506, global = -2.475e-05, cumulative = 0.000218499
smoothSolver:  Solving for omega, Initial residual = 0.00879346, Final residual = 0.00048356, No Iterations 3
smoothSolver:  Solving for k, Initial residual = 0.0459805, Final residual = 0.00222227, No Iterations 3
ExecutionTime = 32.95 s  ClockTime = 38 s

forces forces write:
    Sum of forces
        Total    : (0.000454911 -0.656499 -6.2139)
        Pressure : (-0.0562966 -0.650268 -6.16695)
        Viscous  : (0.0567515 -0.00623185 -0.0469501)
    Sum of moments
        Total    : (0.0311153 63.2848 -6.65955)
        Pressure : (0.0303766 62.8126 -6.59683)
        Viscous  : (0.000738738 0.472225 -0.0627153)
    writing force and moment files.

Time = 18

smoothSolver:  Solving for Ux, Initial residual = 0.121326, Final residual = 0.00982018, No Iterations 7
smoothSolver:  Solving for Uy, Initial residual = 0.271346, Final residual = 0.0204504, No Iterations 7
smoothSolver:  Solving for Uz, Initial residual = 0.168204, Final residual = 0.0155825, No Iterations 6
GAMG:  Solving for p, Initial residual = 0.0873937, Final residual = 0.000848938, No Iterations 8
GAMG:  Solving for p, Initial residual = 0.00791387, Final residual = 7.59206e-05, No Iterations 12
GAMG:  Solving for p, Initial residual = 0.000798961, Final residual = 6.92485e-06, No Iterations 16
time step continuity errors : sum local = 0.00229426, global = 1.23915e-05, cumulative = 0.00023089
smoothSolver:  Solving for omega, Initial residual = 0.00803946, Final residual = 0.000441435, No Iterations 3
smoothSolver:  Solving for k, Initial residual = 0.043392, Final residual = 0.00204088, No Iterations 3
ExecutionTime = 34.77 s  ClockTime = 40 s

forces forces write:
    Sum of forces
        Total    : (0.151979 -0.642315 -5.61445)
        Pressure : (0.109348 -0.638329 -5.5791)
        Viscous  : (0.0426315 -0.00398604 -0.0353466)
    Sum of moments
        Total    : (0.0313934 57.002 -6.51164)
        Pressure : (0.030794 56.6461 -6.47166)
        Viscous  : (0.000599375 0.355917 -0.0399774)
    writing force and moment files.

Time = 19

smoothSolver:  Solving for Ux, Initial residual = 0.111765, Final residual = 0.00917566, No Iterations 7
smoothSolver:  Solving for Uy, Initial residual = 0.262184, Final residual = 0.0260812, No Iterations 6
smoothSolver:  Solving for Uz, Initial residual = 0.162042, Final residual = 0.0149633, No Iterations 6
GAMG:  Solving for p, Initial residual = 0.084281, Final residual = 0.000832918, No Iterations 8
GAMG:  Solving for p, Initial residual = 0.00752807, Final residual = 7.45909e-05, No Iterations 12
GAMG:  Solving for p, Initial residual = 0.000787241, Final residual = 6.68226e-06, No Iterations 16
time step continuity errors : sum local = 0.0021603, global = 1.4024e-05, cumulative = 0.000244914
smoothSolver:  Solving for omega, Initial residual = 0.00747988, Final residual = 0.000413834, No Iterations 3
smoothSolver:  Solving for k, Initial residual = 0.0420905, Final residual = 0.00195478, No Iterations 3
ExecutionTime = 36.52 s  ClockTime = 42 s

forces forces write:
    Sum of forces
        Total    : (0.260385 -0.558863 -4.99022)
        Pressure : (0.225335 -0.558596 -4.95898)
        Viscous  : (0.0350494 -0.000266155 -0.0312394)
    Sum of moments
        Total    : (0.027174 50.5223 -5.66253)
        Pressure : (0.0267915 50.2068 -5.65989)
        Viscous  : (0.000382456 0.315495 -0.00264331)
    writing force and moment files.

Time = 20

smoothSolver:  Solving for Ux, Initial residual = 0.104836, Final residual = 0.00868277, No Iterations 7
smoothSolver:  Solving for Uy, Initial residual = 0.250813, Final residual = 0.0249109, No Iterations 6
smoothSolver:  Solving for Uz, Initial residual = 0.155499, Final residual = 0.0146491, No Iterations 6
GAMG:  Solving for p, Initial residual = 0.0806077, Final residual = 0.000754438, No Iterations 8
GAMG:  Solving for p, Initial residual = 0.00702938, Final residual = 6.87925e-05, No Iterations 12
GAMG:  Solving for p, Initial residual = 0.000756263, Final residual = 6.40973e-06, No Iterations 16
time step continuity errors : sum local = 0.00201081, global = 1.38214e-05, cumulative = 0.000258736
smoothSolver:  Solving for omega, Initial residual = 0.00697481, Final residual = 0.000386005, No Iterations 3
smoothSolver:  Solving for k, Initial residual = 0.0412488, Final residual = 0.00187502, No Iterations 3
ExecutionTime = 38.27 s  ClockTime = 43 s

forces forces write:
    Sum of forces
        Total    : (0.289734 -0.483838 -4.1692)
        Pressure : (0.262493 -0.484468 -4.14058)
        Viscous  : (0.027241 0.000629175 -0.0286208)
    Sum of moments
        Total    : (0.0232593 42.1321 -4.90133)
        Pressure : (0.0230076 41.842 -4.90773)
        Viscous  : (0.000251652 0.290074 0.00640463)
    writing force and moment files.

Time = 21

smoothSolver:  Solving for Ux, Initial residual = 0.100703, Final residual = 0.00817207, No Iterations 7
smoothSolver:  Solving for Uy, Initial residual = 0.242233, Final residual = 0.0237942, No Iterations 6
smoothSolver:  Solving for Uz, Initial residual = 0.14788, Final residual = 0.0142841, No Iterations 6
GAMG:  Solving for p, Initial residual = 0.0772541, Final residual = 0.000658188, No Iterations 8
GAMG:  Solving for p, Initial residual = 0.0067047, Final residual = 5.51142e-05, No Iterations 13
GAMG:  Solving for p, Initial residual = 0.000722971, Final residual = 7.18887e-06, No Iterations 15
time step continuity errors : sum local = 0.00219374, global = 1.50119e-05, cumulative = 0.000273748
smoothSolver:  Solving for omega, Initial residual = 0.00649949, Final residual = 0.000354314, No Iterations 3
smoothSolver:  Solving for k, Initial residual = 0.0403201, Final residual = 0.00182989, No Iterations 3
ExecutionTime = 40.22 s  ClockTime = 46 s

forces forces write:
    Sum of forces
        Total    : (0.312369 -0.407643 -3.11959)
        Pressure : (0.284737 -0.408949 -3.09414)
        Viscous  : (0.0276322 0.00130612 -0.0254577)
    Sum of moments
        Total    : (0.0206458 31.4967 -4.13102)
        Pressure : (0.0203758 31.2375 -4.14386)
        Viscous  : (0.000269976 0.259174 0.01284)
    writing force and moment files.

Time = 22

smoothSolver:  Solving for Ux, Initial residual = 0.0981627, Final residual = 0.00765254, No Iterations 7
smoothSolver:  Solving for Uy, Initial residual = 0.239349, Final residual = 0.0231681, No Iterations 6
smoothSolver:  Solving for Uz, Initial residual = 0.143311, Final residual = 0.0139193, No Iterations 6
GAMG:  Solving for p, Initial residual = 0.0746869, Final residual = 0.000643551, No Iterations 8
GAMG:  Solving for p, Initial residual = 0.00651445, Final residual = 6.18862e-05, No Iterations 12
GAMG:  Solving for p, Initial residual = 0.000681713, Final residual = 6.14606e-06, No Iterations 16
time step continuity errors : sum local = 0.0018068, global = 1.2845e-05, cumulative = 0.000286593
smoothSolver:  Solving for omega, Initial residual = 0.00615966, Final residual = 0.000332222, No Iterations 3
smoothSolver:  Solving for k, Initial residual = 0.0396208, Final residual = 0.00182265, No Iterations 3
ExecutionTime = 42.69 s  ClockTime = 49 s

forces forces write:
    Sum of forces
        Total    : (0.41412 -0.329956 -2.00847)
        Pressure : (0.386677 -0.331337 -1.98821)
        Viscous  : (0.0274429 0.00138186 -0.0202602)
    Sum of moments
        Total    : (0.0188499 20.2833 -3.34582)
        Pressure : (0.0185436 20.0761 -3.35933)
        Viscous  : (0.000306281 0.207165 0.0135104)
    writing force and moment files.

Time = 23

smoothSolver:  Solving for Ux, Initial residual = 0.0970161, Final residual = 0.00718021, No Iterations 7
smoothSolver:  Solving for Uy, Initial residual = 0.238818, Final residual = 0.0229783, No Iterations 6
smoothSolver:  Solving for Uz, Initial residual = 0.14121, Final residual = 0.0135098, No Iterations 6
GAMG:  Solving for p, Initial residual = 0.0733152, Final residual = 0.000680893, No Iterations 8
GAMG:  Solving for p, Initial residual = 0.00650055, Final residual = 6.39583e-05, No Iterations 12
GAMG:  Solving for p, Initial residual = 0.000680772, Final residual = 6.71934e-06, No Iterations 16
time step continuity errors : sum local = 0.00188019, global = 1.5503e-05, cumulative = 0.000302096
smoothSolver:  Solving for omega, Initial residual = 0.00576861, Final residual = 0.000304338, No Iterations 3
smoothSolver:  Solving for k, Initial residual = 0.0394864, Final residual = 0.00180655, No Iterations 3
ExecutionTime = 45.22 s  ClockTime = 52 s

forces forces write:
    Sum of forces
        Total    : (0.621328 -0.25838 -1.01733)
        Pressure : (0.591 -0.260743 -1.00121)
        Viscous  : (0.0303278 0.00236316 -0.0161233)
    Sum of moments
        Total    : (0.0166652 10.292 -2.62325)
        Pressure : (0.0164369 10.126 -2.64658)
        Viscous  : (0.000228285 0.165958 0.0233225)
    writing force and moment files.

Time = 24

smoothSolver:  Solving for Ux, Initial residual = 0.0968047, Final residual = 0.0091602, No Iterations 6
smoothSolver:  Solving for Uy, Initial residual = 0.235419, Final residual = 0.0223914, No Iterations 6
smoothSolver:  Solving for Uz, Initial residual = 0.141338, Final residual = 0.0130139, No Iterations 6
GAMG:  Solving for p, Initial residual = 0.0727844, Final residual = 0.000708719, No Iterations 8
GAMG:  Solving for p, Initial residual = 0.00657, Final residual = 6.36792e-05, No Iterations 13
GAMG:  Solving for p, Initial residual = 0.000707403, Final residual = 6.75086e-06, No Iterations 17
time step continuity errors : sum local = 0.00177793, global = 1.52835e-05, cumulative = 0.000317379
smoothSolver:  Solving for omega, Initial residual = 0.00550969, Final residual = 0.000288331, No Iterations 3
smoothSolver:  Solving for k, Initial residual = 0.0397828, Final residual = 0.00178473, No Iterations 3
ExecutionTime = 47.15 s  ClockTime = 54 s

forces forces write:
    Sum of forces
        Total    : (0.865625 -0.203482 -0.384984)
        Pressure : (0.838011 -0.205929 -0.37315)
        Viscous  : (0.027614 0.00244663 -0.0118343)
    Sum of moments
        Total    : (0.0141614 3.92047 -2.07089)
        Pressure : (0.0139721 3.79769 -2.09503)
        Viscous  : (0.000189386 0.122788 0.0241427)
    writing force and moment files.

Time = 25

smoothSolver:  Solving for Ux, Initial residual = 0.0965032, Final residual = 0.00862037, No Iterations 6
smoothSolver:  Solving for Uy, Initial residual = 0.229716, Final residual = 0.0216596, No Iterations 6
smoothSolver:  Solving for Uz, Initial residual = 0.140958, Final residual = 0.0124856, No Iterations 6
GAMG:  Solving for p, Initial residual = 0.0722519, Final residual = 0.000544403, No Iterations 9
GAMG:  Solving for p, Initial residual = 0.00664281, Final residual = 5.6306e-05, No Iterations 13
GAMG:  Solving for p, Initial residual = 0.000707883, Final residual = 5.99326e-06, No Iterations 17
time step continuity errors : sum local = 0.00146399, global = -1.47649e-05, cumulative = 0.000302614
smoothSolver:  Solving for omega, Initial residual = 0.00521962, Final residual = 0.000269185, No Iterations 3
smoothSolver:  Solving for k, Initial residual = 0.0406471, Final residual = 0.00178983, No Iterations 3
ExecutionTime = 49.19 s  ClockTime = 57 s

forces forces write:
    Sum of forces
        Total    : (1.09497 -0.125527 0.0094731)
        Pressure : (1.0692 -0.128137 0.0176607)
        Viscous  : (0.0257676 0.00261033 -0.00818757)
    Sum of moments
        Total    : (0.00960479 -0.0647489 -1.28504)
        Pressure : (0.00947629 -0.15076 -1.3107)
        Viscous  : (0.000128505 0.0860108 0.0256657)
    writing force and moment files.

Time = 26

smoothSolver:  Solving for Ux, Initial residual = 0.0951353, Final residual = 0.00811668, No Iterations 6
smoothSolver:  Solving for Uy, Initial residual = 0.226518, Final residual = 0.0216888, No Iterations 6
smoothSolver:  Solving for Uz, Initial residual = 0.140318, Final residual = 0.0121859, No Iterations 6
GAMG:  Solving for p, Initial residual = 0.0720958, Final residual = 0.000553826, No Iterations 9
GAMG:  Solving for p, Initial residual = 0.00657281, Final residual = 6.42639e-05, No Iterations 12
GAMG:  Solving for p, Initial residual = 0.000686044, Final residual = 6.84448e-06, No Iterations 16
time step continuity errors : sum local = 0.00153115, global = -1.40707e-05, cumulative = 0.000288544
smoothSolver:  Solving for omega, Initial residual = 0.00484108, Final residual = 0.00025007, No Iterations 3
smoothSolver:  Solving for k, Initial residual = 0.0413348, Final residual = 0.00180127, No Iterations 3
ExecutionTime = 51.09 s  ClockTime = 58 s

forces forces write:
    Sum of forces
        Total    : (1.28144 -0.0463564 0.242992)
        Pressure : (1.25814 -0.0477032 0.248601)
        Viscous  : (0.0233006 0.00134686 -0.0056098)
    Sum of moments
        Total    : (0.00406866 -2.43331 -0.485031)
        Pressure : (0.00390244 -2.4932 -0.497809)
        Viscous  : (0.000166217 0.059886 0.0127778)
    writing force and moment files.

Time = 27

smoothSolver:  Solving for Ux, Initial residual = 0.0920844, Final residual = 0.00767146, No Iterations 6
smoothSolver:  Solving for Uy, Initial residual = 0.223508, Final residual = 0.0216635, No Iterations 6
smoothSolver:  Solving for Uz, Initial residual = 0.139054, Final residual = 0.0120004, No Iterations 6
GAMG:  Solving for p, Initial residual = 0.0723503, Final residual = 0.000580767, No Iterations 9
GAMG:  Solving for p, Initial residual = 0.00631767, Final residual = 5.34398e-05, No Iterations 13
GAMG:  Solving for p, Initial residual = 0.000652047, Final residual = 6.412e-06, No Iterations 16
time step continuity errors : sum local = 0.00129758, global = -1.06086e-05, cumulative = 0.000277935
smoothSolver:  Solving for omega, Initial residual = 0.00451536, Final residual = 0.000231606, No Iterations 3
smoothSolver:  Solving for k, Initial residual = 0.0414223, Final residual = 0.00180263, No Iterations 3
ExecutionTime = 53.06 s  ClockTime = 60 s

forces forces write:
    Sum of forces
        Total    : (1.39656 0.02027 0.341989)
        Pressure : (1.3757 0.0194629 0.345661)
        Viscous  : (0.0208638 0.000807164 -0.00367145)
    Sum of moments
        Total    : (-0.00107441 -3.44327 0.18839)
        Pressure : (-0.00125036 -3.48349 0.181258)
        Viscous  : (0.000175951 0.0402177 0.00713185)
    writing force and moment files.

Time = 28

smoothSolver:  Solving for Ux, Initial residual = 0.0880973, Final residual = 0.00726399, No Iterations 6
smoothSolver:  Solving for Uy, Initial residual = 0.216963, Final residual = 0.0215443, No Iterations 6
smoothSolver:  Solving for Uz, Initial residual = 0.137609, Final residual = 0.0119044, No Iterations 6
GAMG:  Solving for p, Initial residual = 0.0733764, Final residual = 0.000589846, No Iterations 9
GAMG:  Solving for p, Initial residual = 0.0062835, Final residual = 5.96505e-05, No Iterations 13
GAMG:  Solving for p, Initial residual = 0.000659419, Final residual = 6.40183e-06, No Iterations 17
time step continuity errors : sum local = 0.00115648, global = -9.54074e-06, cumulative = 0.000268394
smoothSolver:  Solving for omega, Initial residual = 0.00421977, Final residual = 0.000215955, No Iterations 3
smoothSolver:  Solving for k, Initial residual = 0.0412235, Final residual = 0.00178803, No Iterations 3
ExecutionTime = 54.91 s  ClockTime = 62 s

forces forces write:
    Sum of forces
        Total    : (1.44029 0.0669744 0.347547)
        Pressure : (1.42243 0.0675761 0.350329)
        Viscous  : (0.0178634 -0.000601651 -0.00278129)
    Sum of moments
        Total    : (-0.00538383 -3.50809 0.659577)
        Pressure : (-0.00561465 -3.53923 0.666862)
        Viscous  : (0.000230817 0.0311352 -0.00728573)
    writing force and moment files.

Time = 29

smoothSolver:  Solving for Ux, Initial residual = 0.0846737, Final residual = 0.00688569, No Iterations 6
smoothSolver:  Solving for Uy, Initial residual = 0.211516, Final residual = 0.0160824, No Iterations 7
smoothSolver:  Solving for Uz, Initial residual = 0.136821, Final residual = 0.0118741, No Iterations 6
GAMG:  Solving for p, Initial residual = 0.0757619, Final residual = 0.000676653, No Iterations 9
GAMG:  Solving for p, Initial residual = 0.00659574, Final residual = 5.90157e-05, No Iterations 14
GAMG:  Solving for p, Initial residual = 0.000697647, Final residual = 6.3071e-06, No Iterations 18
time step continuity errors : sum local = 0.00100959, global = -9.19215e-06, cumulative = 0.000259202
smoothSolver:  Solving for omega, Initial residual = 0.00388014, Final residual = 0.00020066, No Iterations 3
smoothSolver:  Solving for k, Initial residual = 0.0401817, Final residual = 0.00176735, No Iterations 3
ExecutionTime = 56.85 s  ClockTime = 64 s

forces forces write:
    Sum of forces
        Total    : (1.39648 0.0901204 0.285544)
        Pressure : (1.37975 0.0908334 0.287796)
        Viscous  : (0.016736 -0.000713003 -0.00225171)
    Sum of moments
        Total    : (-0.00817779 -2.88941 0.891321)
        Pressure : (-0.00840416 -2.91521 0.899811)
        Viscous  : (0.00022637 0.0257957 -0.0084903)
    writing force and moment files.

Time = 30

smoothSolver:  Solving for Ux, Initial residual = 0.0819211, Final residual = 0.00664651, No Iterations 6
smoothSolver:  Solving for Uy, Initial residual = 0.205379, Final residual = 0.0156326, No Iterations 7
smoothSolver:  Solving for Uz, Initial residual = 0.134855, Final residual = 0.0118345, No Iterations 6
GAMG:  Solving for p, Initial residual = 0.0783633, Final residual = 0.000781189, No Iterations 8
GAMG:  Solving for p, Initial residual = 0.00687935, Final residual = 5.82789e-05, No Iterations 15
GAMG:  Solving for p, Initial residual = 0.000764391, Final residual = 6.77517e-06, No Iterations 18
time step continuity errors : sum local = 0.000958113, global = -8.67619e-06, cumulative = 0.000250526
smoothSolver:  Solving for omega, Initial residual = 0.00355855, Final residual = 0.00018936, No Iterations 3
smoothSolver:  Solving for k, Initial residual = 0.0383334, Final residual = 0.00175716, No Iterations 3
ExecutionTime = 58.84 s  ClockTime = 66 s

forces forces write:
    Sum of forces
        Total    : (1.29372 0.102792 0.217445)
        Pressure : (1.27857 0.10347 0.218585)
        Viscous  : (0.0151474 -0.000677624 -0.00113967)
    Sum of moments
        Total    : (-0.00984394 -2.21041 1.01572)
        Pressure : (-0.0100871 -2.2248 1.02389)
        Viscous  : (0.000243207 0.0143848 -0.0081766)
    writing force and moment files.

Time = 31

smoothSolver:  Solving for Ux, Initial residual = 0.079284, Final residual = 0.00651221, No Iterations 6
smoothSolver:  Solving for Uy, Initial residual = 0.19945, Final residual = 0.0152231, No Iterations 7
smoothSolver:  Solving for Uz, Initial residual = 0.129779, Final residual = 0.0116048, No Iterations 6
GAMG:  Solving for p, Initial residual = 0.0804661, Final residual = 0.000755672, No Iterations 8
GAMG:  Solving for p, Initial residual = 0.00694923, Final residual = 6.47276e-05, No Iterations 14
GAMG:  Solving for p, Initial residual = 0.000754657, Final residual = 6.63675e-06, No Iterations 18
time step continuity errors : sum local = 0.000836, global = -7.26689e-06, cumulative = 0.000243259
smoothSolver:  Solving for omega, Initial residual = 0.00327226, Final residual = 0.000177693, No Iterations 3
smoothSolver:  Solving for k, Initial residual = 0.0362326, Final residual = 0.00175497, No Iterations 3
ExecutionTime = 60.85 s  ClockTime = 68 s

forces forces write:
    Sum of forces
        Total    : (1.15259 0.115304 0.141804)
        Pressure : (1.13871 0.115042 0.141907)
        Viscous  : (0.0138805 0.000262106 -0.000102601)
    Sum of moments
        Total    : (-0.0104801 -1.45612 1.13755)
        Pressure : (-0.0106841 -1.45988 1.13619)
        Viscous  : (0.000203948 0.00375617 0.0013618)
    writing force and moment files.

Time = 32

smoothSolver:  Solving for Ux, Initial residual = 0.0756743, Final residual = 0.00634093, No Iterations 6
smoothSolver:  Solving for Uy, Initial residual = 0.194445, Final residual = 0.0152439, No Iterations 7
smoothSolver:  Solving for Uz, Initial residual = 0.123146, Final residual = 0.0112904, No Iterations 6
GAMG:  Solving for p, Initial residual = 0.0815461, Final residual = 0.000739202, No Iterations 8
GAMG:  Solving for p, Initial residual = 0.00692956, Final residual = 6.00355e-05, No Iterations 14
GAMG:  Solving for p, Initial residual = 0.000736588, Final residual = 7.34686e-06, No Iterations 17
time step continuity errors : sum local = 0.000839493, global = -6.44543e-06, cumulative = 0.000236814
smoothSolver:  Solving for omega, Initial residual = 0.00299911, Final residual = 0.00016798, No Iterations 3
smoothSolver:  Solving for k, Initial residual = 0.0342043, Final residual = 0.00175392, No Iterations 3
ExecutionTime = 62.77 s  ClockTime = 70 s

forces forces write:
    Sum of forces
        Total    : (1.00422 0.121685 0.0887057)
        Pressure : (0.990807 0.120866 0.087241)
        Viscous  : (0.0134116 0.000819085 0.00146471)
    Sum of moments
        Total    : (-0.0098419 -0.93033 1.19705)
        Pressure : (-0.0100348 -0.91807 1.19005)
        Viscous  : (0.000192888 -0.0122604 0.00700567)
    writing force and moment files.

Time = 33

smoothSolver:  Solving for Ux, Initial residual = 0.0705196, Final residual = 0.00610025, No Iterations 6
smoothSolver:  Solving for Uy, Initial residual = 0.189424, Final residual = 0.0153697, No Iterations 7
smoothSolver:  Solving for Uz, Initial residual = 0.116314, Final residual = 0.0110425, No Iterations 6
GAMG:  Solving for p, Initial residual = 0.0807572, Final residual = 0.000724084, No Iterations 8
GAMG:  Solving for p, Initial residual = 0.00674708, Final residual = 6.53913e-05, No Iterations 13
GAMG:  Solving for p, Initial residual = 0.000721221, Final residual = 6.95791e-06, No Iterations 17
time step continuity errors : sum local = 0.000729009, global = -4.56019e-06, cumulative = 0.000232254
smoothSolver:  Solving for omega, Initial residual = 0.00271783, Final residual = 0.000156844, No Iterations 3
smoothSolver:  Solving for k, Initial residual = 0.0319436, Final residual = 0.00173503, No Iterations 3
ExecutionTime = 64.62 s  ClockTime = 72 s

forces forces write:
    Sum of forces
        Total    : (0.872503 0.126025 0.0402855)
        Pressure : (0.859344 0.124556 0.03777)
        Viscous  : (0.0131593 0.00146897 0.00251552)
    Sum of moments
        Total    : (-0.0086082 -0.447688 1.23729)
        Pressure : (-0.00876137 -0.424716 1.22369)
        Viscous  : (0.000153171 -0.0229728 0.0136007)
    writing force and moment files.

Time = 34

smoothSolver:  Solving for Ux, Initial residual = 0.0646616, Final residual = 0.00580011, No Iterations 6
smoothSolver:  Solving for Uy, Initial residual = 0.182849, Final residual = 0.0154124, No Iterations 7
smoothSolver:  Solving for Uz, Initial residual = 0.109775, Final residual = 0.0108667, No Iterations 6
GAMG:  Solving for p, Initial residual = 0.0789298, Final residual = 0.000692542, No Iterations 8
GAMG:  Solving for p, Initial residual = 0.00642796, Final residual = 5.68835e-05, No Iterations 13
GAMG:  Solving for p, Initial residual = 0.000685267, Final residual = 6.85206e-06, No Iterations 16
time step continuity errors : sum local = 0.000665477, global = -3.97536e-06, cumulative = 0.000228278
smoothSolver:  Solving for omega, Initial residual = 0.00245481, Final residual = 0.000144651, No Iterations 3
smoothSolver:  Solving for k, Initial residual = 0.0296368, Final residual = 0.00169677, No Iterations 3
ExecutionTime = 66.44 s  ClockTime = 74 s

forces forces write:
    Sum of forces
        Total    : (0.790317 0.116355 0.0424361)
        Pressure : (0.776516 0.114868 0.0384883)
        Viscous  : (0.0138001 0.00148718 0.00394784)
    Sum of moments
        Total    : (-0.00648664 -0.472988 1.13806)
        Pressure : (-0.00665146 -0.4354 1.12428)
        Viscous  : (0.000164819 -0.0375887 0.0137834)
    writing force and moment files.

Time = 35

smoothSolver:  Solving for Ux, Initial residual = 0.0588876, Final residual = 0.00546155, No Iterations 6
smoothSolver:  Solving for Uy, Initial residual = 0.175167, Final residual = 0.0153655, No Iterations 7
smoothSolver:  Solving for Uz, Initial residual = 0.103904, Final residual = 0.00807506, No Iterations 7
GAMG:  Solving for p, Initial residual = 0.0772415, Final residual = 0.000670208, No Iterations 8
GAMG:  Solving for p, Initial residual = 0.00621854, Final residual = 5.22959e-05, No Iterations 13
GAMG:  Solving for p, Initial residual = 0.000658585, Final residual = 6.09726e-06, No Iterations 16
time step continuity errors : sum local = 0.000552233, global = -3.38631e-06, cumulative = 0.000224892
smoothSolver:  Solving for omega, Initial residual = 0.00223177, Final residual = 0.000134059, No Iterations 3
smoothSolver:  Solving for k, Initial residual = 0.0276081, Final residual = 0.00164732, No Iterations 3
ExecutionTime = 68.33 s  ClockTime = 76 s

forces forces write:
    Sum of forces
        Total    : (0.745323 0.0772046 0.0782621)
        Pressure : (0.730448 0.076098 0.0735842)
        Viscous  : (0.0148749 0.00110659 0.00467787)
    Sum of moments
        Total    : (-0.0031294 -0.834579 0.74284)
        Pressure : (-0.00328541 -0.789536 0.732878)
        Viscous  : (0.000156015 -0.0450434 0.00996217)
    writing force and moment files.

Time = 36

smoothSolver:  Solving for Ux, Initial residual = 0.0542408, Final residual = 0.0051179, No Iterations 6
smoothSolver:  Solving for Uy, Initial residual = 0.167345, Final residual = 0.0152555, No Iterations 7
smoothSolver:  Solving for Uz, Initial residual = 0.0979068, Final residual = 0.00791506, No Iterations 7
GAMG:  Solving for p, Initial residual = 0.0758976, Final residual = 0.000647291, No Iterations 8
GAMG:  Solving for p, Initial residual = 0.00608542, Final residual = 5.15197e-05, No Iterations 13
GAMG:  Solving for p, Initial residual = 0.000637135, Final residual = 5.92784e-06, No Iterations 16
time step continuity errors : sum local = 0.00050172, global = -3.47195e-06, cumulative = 0.00022142
smoothSolver:  Solving for omega, Initial residual = 0.00203109, Final residual = 0.000124256, No Iterations 3
smoothSolver:  Solving for k, Initial residual = 0.0257183, Final residual = 0.00159523, No Iterations 3
ExecutionTime = 70.16 s  ClockTime = 78 s

forces forces write:
    Sum of forces
        Total    : (0.73383 0.0132546 0.155311)
        Pressure : (0.717121 0.0130237 0.150188)
        Viscous  : (0.0167093 0.000230969 0.00512294)
    Sum of moments
        Total    : (0.000781149 -1.61101 0.098044)
        Pressure : (0.000592425 -1.56139 0.0969793)
        Viscous  : (0.000188724 -0.0496189 0.00106474)
    writing force and moment files.

Time = 37

smoothSolver:  Solving for Ux, Initial residual = 0.0505494, Final residual = 0.00479665, No Iterations 6
smoothSolver:  Solving for Uy, Initial residual = 0.15965, Final residual = 0.0147741, No Iterations 7
smoothSolver:  Solving for Uz, Initial residual = 0.0930989, Final residual = 0.00770872, No Iterations 7
GAMG:  Solving for p, Initial residual = 0.0751672, Final residual = 0.000634278, No Iterations 8
GAMG:  Solving for p, Initial residual = 0.00604954, Final residual = 5.32429e-05, No Iterations 13
GAMG:  Solving for p, Initial residual = 0.000628795, Final residual = 6.1208e-06, No Iterations 16
time step continuity errors : sum local = 0.000485806, global = -4.21811e-06, cumulative = 0.000217202
smoothSolver:  Solving for omega, Initial residual = 0.00185639, Final residual = 0.000116323, No Iterations 3
smoothSolver:  Solving for k, Initial residual = 0.0239583, Final residual = 0.00154059, No Iterations 3
ExecutionTime = 72.01 s  ClockTime = 80 s

forces forces write:
    Sum of forces
        Total    : (0.736495 -0.0597257 0.243935)
        Pressure : (0.717427 -0.0586909 0.238823)
        Viscous  : (0.0190679 -0.00103481 0.00511254)
    Sum of moments
        Total    : (0.00421087 -2.50336 -0.637201)
        Pressure : (0.00401161 -2.45378 -0.625485)
        Viscous  : (0.000199252 -0.0495829 -0.0117154)
    writing force and moment files.

Time = 38

smoothSolver:  Solving for Ux, Initial residual = 0.0476829, Final residual = 0.00452886, No Iterations 6
smoothSolver:  Solving for Uy, Initial residual = 0.150454, Final residual = 0.01386, No Iterations 7
smoothSolver:  Solving for Uz, Initial residual = 0.089638, Final residual = 0.00743712, No Iterations 7
GAMG:  Solving for p, Initial residual = 0.0748016, Final residual = 0.000642949, No Iterations 8
GAMG:  Solving for p, Initial residual = 0.00612596, Final residual = 5.43702e-05, No Iterations 13
GAMG:  Solving for p, Initial residual = 0.00063191, Final residual = 5.46753e-06, No Iterations 17
time step continuity errors : sum local = 0.000408446, global = -3.41792e-06, cumulative = 0.000213784
smoothSolver:  Solving for omega, Initial residual = 0.0017012, Final residual = 0.000109105, No Iterations 3
smoothSolver:  Solving for k, Initial residual = 0.0223217, Final residual = 0.00148112, No Iterations 3
ExecutionTime = 74.04 s  ClockTime = 82 s

forces forces write:
    Sum of forces
        Total    : (0.745843 -0.123933 0.326647)
        Pressure : (0.72413 -0.121337 0.321661)
        Viscous  : (0.0217128 -0.00259634 0.00498633)
    Sum of moments
        Total    : (0.00616245 -3.33584 -1.28365)
        Pressure : (0.00591395 -3.2875 -1.25611)
        Viscous  : (0.000248499 -0.048346 -0.027538)
    writing force and moment files.

Time = 39

smoothSolver:  Solving for Ux, Initial residual = 0.0451451, Final residual = 0.00428784, No Iterations 6
smoothSolver:  Solving for Uy, Initial residual = 0.141308, Final residual = 0.0128443, No Iterations 7
smoothSolver:  Solving for Uz, Initial residual = 0.0873468, Final residual = 0.00724206, No Iterations 7
GAMG:  Solving for p, Initial residual = 0.0744577, Final residual = 0.00065921, No Iterations 8
GAMG:  Solving for p, Initial residual = 0.0062369, Final residual = 5.48198e-05, No Iterations 13
GAMG:  Solving for p, Initial residual = 0.000644669, Final residual = 6.37198e-06, No Iterations 16
time step continuity errors : sum local = 0.000452417, global = 2.85106e-06, cumulative = 0.000216635
smoothSolver:  Solving for omega, Initial residual = 0.00158639, Final residual = 0.000104261, No Iterations 3
smoothSolver:  Solving for k, Initial residual = 0.0210186, Final residual = 0.00142499, No Iterations 3
ExecutionTime = 76.24 s  ClockTime = 84 s

forces forces write:
    Sum of forces
        Total    : (0.753565 -0.16634 0.384111)
        Pressure : (0.729401 -0.162363 0.379174)
        Viscous  : (0.0241642 -0.00397634 0.00493603)
    Sum of moments
        Total    : (0.00630493 -3.9134 -1.70928)
        Pressure : (0.0060415 -3.86549 -1.66785)
        Viscous  : (0.000263432 -0.0479084 -0.0414301)
    writing force and moment files.

Time = 40

smoothSolver:  Solving for Ux, Initial residual = 0.0428067, Final residual = 0.00405916, No Iterations 6
smoothSolver:  Solving for Uy, Initial residual = 0.132871, Final residual = 0.0119324, No Iterations 7
smoothSolver:  Solving for Uz, Initial residual = 0.0857891, Final residual = 0.00712697, No Iterations 7
GAMG:  Solving for p, Initial residual = 0.0738072, Final residual = 0.000666468, No Iterations 8
GAMG:  Solving for p, Initial residual = 0.00632168, Final residual = 5.5515e-05, No Iterations 13
GAMG:  Solving for p, Initial residual = 0.00065814, Final residual = 6.37908e-06, No Iterations 16
time step continuity errors : sum local = 0.000430717, global = 2.9805e-06, cumulative = 0.000219616
smoothSolver:  Solving for omega, Initial residual = 0.00148026, Final residual = 9.80295e-05, No Iterations 3
smoothSolver:  Solving for k, Initial residual = 0.0199291, Final residual = 0.00137173, No Iterations 3
ExecutionTime = 78.5 s  ClockTime = 87 s

forces forces write:
    Sum of forces
        Total    : (0.758164 -0.181263 0.404915)
        Pressure : (0.73193 -0.176129 0.399912)
        Viscous  : (0.0262338 -0.00513396 0.00500335)
    Sum of moments
        Total    : (0.00503754 -4.12015 -1.85656)
        Pressure : (0.00474895 -4.07151 -1.80345)
        Viscous  : (0.000288584 -0.048636 -0.0531105)
    writing force and moment files.

Time = 41

smoothSolver:  Solving for Ux, Initial residual = 0.040593, Final residual = 0.00385333, No Iterations 6
smoothSolver:  Solving for Uy, Initial residual = 0.125337, Final residual = 0.011095, No Iterations 7
smoothSolver:  Solving for Uz, Initial residual = 0.0846379, Final residual = 0.00706162, No Iterations 7
GAMG:  Solving for p, Initial residual = 0.0729308, Final residual = 0.000659916, No Iterations 8
GAMG:  Solving for p, Initial residual = 0.00630352, Final residual = 5.48315e-05, No Iterations 13
GAMG:  Solving for p, Initial residual = 0.000658751, Final residual = 6.22937e-06, No Iterations 16
time step continuity errors : sum local = 0.000401059, global = 2.61619e-06, cumulative = 0.000222232
smoothSolver:  Solving for omega, Initial residual = 0.00140096, Final residual = 9.36345e-05, No Iterations 3
smoothSolver:  Solving for k, Initial residual = 0.0191253, Final residual = 0.0013275, No Iterations 3
ExecutionTime = 80.52 s  ClockTime = 89 s

forces forces write:
    Sum of forces
        Total    : (0.761828 -0.174715 0.394711)
        Pressure : (0.733768 -0.168812 0.389683)
        Viscous  : (0.02806 -0.00590293 0.00502805)
    Sum of moments
        Total    : (0.00336307 -4.01321 -1.7864)
        Pressure : (0.00307714 -3.96423 -1.7256)
        Viscous  : (0.000285935 -0.0489818 -0.0607998)
    writing force and moment files.

Time = 42

smoothSolver:  Solving for Ux, Initial residual = 0.0384955, Final residual = 0.00366269, No Iterations 6
smoothSolver:  Solving for Uy, Initial residual = 0.118569, Final residual = 0.0103594, No Iterations 7
smoothSolver:  Solving for Uz, Initial residual = 0.0839389, Final residual = 0.00704349, No Iterations 7
GAMG:  Solving for p, Initial residual = 0.0721138, Final residual = 0.000635162, No Iterations 8
GAMG:  Solving for p, Initial residual = 0.00618937, Final residual = 5.23081e-05, No Iterations 13
GAMG:  Solving for p, Initial residual = 0.000644792, Final residual = 5.87356e-06, No Iterations 16
time step continuity errors : sum local = 0.000360311, global = 2.25284e-06, cumulative = 0.000224485
smoothSolver:  Solving for omega, Initial residual = 0.00132311, Final residual = 8.87126e-05, No Iterations 3
smoothSolver:  Solving for k, Initial residual = 0.0184522, Final residual = 0.00129087, No Iterations 3
ExecutionTime = 82.65 s  ClockTime = 91 s

forces forces write:
    Sum of forces
        Total    : (0.758959 -0.155188 0.362653)
        Pressure : (0.729379 -0.148937 0.357352)
        Viscous  : (0.0295795 -0.00625161 0.00530179)
    Sum of moments
        Total    : (0.00195431 -3.68498 -1.58519)
        Pressure : (0.0016782 -3.63315 -1.52093)
        Viscous  : (0.000276103 -0.0518319 -0.0642607)
    writing force and moment files.

Time = 43

smoothSolver:  Solving for Ux, Initial residual = 0.0363395, Final residual = 0.00346905, No Iterations 6
smoothSolver:  Solving for Uy, Initial residual = 0.11202, Final residual = 0.009728, No Iterations 7
smoothSolver:  Solving for Uz, Initial residual = 0.0836018, Final residual = 0.0070546, No Iterations 7
GAMG:  Solving for p, Initial residual = 0.0712293, Final residual = 0.000601733, No Iterations 8
GAMG:  Solving for p, Initial residual = 0.0060231, Final residual = 5.95172e-05, No Iterations 12
GAMG:  Solving for p, Initial residual = 0.00062747, Final residual = 5.95763e-06, No Iterations 16
time step continuity errors : sum local = 0.000348461, global = 2.13639e-06, cumulative = 0.000226621
smoothSolver:  Solving for omega, Initial residual = 0.00125492, Final residual = 8.47927e-05, No Iterations 3
smoothSolver:  Solving for k, Initial residual = 0.0178753, Final residual = 0.00125986, No Iterations 3
ExecutionTime = 84.49 s  ClockTime = 93 s

forces forces write:
    Sum of forces
        Total    : (0.754852 -0.128442 0.331502)
        Pressure : (0.723903 -0.122015 0.325979)
        Viscous  : (0.0309487 -0.00642674 0.00552226)
    Sum of moments
        Total    : (0.000982823 -3.36605 -1.3112)
        Pressure : (0.000733506 -3.31189 -1.24526)
        Viscous  : (0.000249317 -0.0541561 -0.0659418)
    writing force and moment files.

Time = 44

smoothSolver:  Solving for Ux, Initial residual = 0.0340502, Final residual = 0.00328036, No Iterations 6
smoothSolver:  Solving for Uy, Initial residual = 0.105811, Final residual = 0.0092102, No Iterations 7
smoothSolver:  Solving for Uz, Initial residual = 0.0833716, Final residual = 0.00707385, No Iterations 7
GAMG:  Solving for p, Initial residual = 0.0700667, Final residual = 0.000568219, No Iterations 8
GAMG:  Solving for p, Initial residual = 0.00589576, Final residual = 5.60775e-05, No Iterations 12
GAMG:  Solving for p, Initial residual = 0.000604772, Final residual = 5.55748e-06, No Iterations 16
time step continuity errors : sum local = 0.000308945, global = 1.86326e-06, cumulative = 0.000228484
smoothSolver:  Solving for omega, Initial residual = 0.00118618, Final residual = 8.056e-05, No Iterations 3
smoothSolver:  Solving for k, Initial residual = 0.017304, Final residual = 0.00122812, No Iterations 3
ExecutionTime = 86.38 s  ClockTime = 95 s

forces forces write:
    Sum of forces
        Total    : (0.751463 -0.0984454 0.306703)
        Pressure : (0.719279 -0.0920073 0.300897)
        Viscous  : (0.0321833 -0.0064381 0.00580574)
    Sum of moments
        Total    : (0.000365196 -3.11103 -1.00471)
        Pressure : (0.00013854 -3.05394 -0.938738)
        Viscous  : (0.000226656 -0.0570916 -0.0659669)
    writing force and moment files.

Time = 45

smoothSolver:  Solving for Ux, Initial residual = 0.0317979, Final residual = 0.00309716, No Iterations 6
smoothSolver:  Solving for Uy, Initial residual = 0.100263, Final residual = 0.00877242, No Iterations 7
smoothSolver:  Solving for Uz, Initial residual = 0.083349, Final residual = 0.00711521, No Iterations 7
GAMG:  Solving for p, Initial residual = 0.0687482, Final residual = 0.00054501, No Iterations 8
GAMG:  Solving for p, Initial residual = 0.00579394, Final residual = 5.46412e-05, No Iterations 12
GAMG:  Solving for p, Initial residual = 0.000588162, Final residual = 5.26236e-06, No Iterations 16
time step continuity errors : sum local = 0.000278128, global = 1.66914e-06, cumulative = 0.000230153
smoothSolver:  Solving for omega, Initial residual = 0.00111457, Final residual = 7.63707e-05, No Iterations 3
smoothSolver:  Solving for k, Initial residual = 0.0166892, Final residual = 0.00119689, No Iterations 3
ExecutionTime = 88.27 s  ClockTime = 97 s

forces forces write:
    Sum of forces
        Total    : (0.750497 -0.0676577 0.296852)
        Pressure : (0.716855 -0.0614189 0.290815)
        Viscous  : (0.0336415 -0.00623878 0.00603657)
    Sum of moments
        Total    : (-0.000133862 -3.00711 -0.690604)
        Pressure : (-0.000329478 -2.94764 -0.626759)
        Viscous  : (0.000195616 -0.0594748 -0.0638458)
    writing force and moment files.

Time = 46

smoothSolver:  Solving for Ux, Initial residual = 0.0296577, Final residual = 0.00292225, No Iterations 6
smoothSolver:  Solving for Uy, Initial residual = 0.0952688, Final residual = 0.00836351, No Iterations 7
smoothSolver:  Solving for Uz, Initial residual = 0.0834031, Final residual = 0.0071961, No Iterations 7
GAMG:  Solving for p, Initial residual = 0.067462, Final residual = 0.000532068, No Iterations 8
GAMG:  Solving for p, Initial residual = 0.00570665, Final residual = 5.39759e-05, No Iterations 12
GAMG:  Solving for p, Initial residual = 0.000579944, Final residual = 5.16978e-06, No Iterations 16
time step continuity errors : sum local = 0.000259632, global = 1.55099e-06, cumulative = 0.000231704
smoothSolver:  Solving for omega, Initial residual = 0.00104499, Final residual = 7.21618e-05, No Iterations 3
smoothSolver:  Solving for k, Initial residual = 0.0160142, Final residual = 0.00116371, No Iterations 3
ExecutionTime = 90.17 s  ClockTime = 99 s

forces forces write:
    Sum of forces
        Total    : (0.751585 -0.0379838 0.292591)
        Pressure : (0.716554 -0.0321253 0.286428)
        Viscous  : (0.035031 -0.0058585 0.00616327)
    Sum of moments
        Total    : (-0.000581643 -2.95962 -0.388215)
        Pressure : (-0.000749951 -2.89884 -0.328319)
        Viscous  : (0.000168307 -0.0607862 -0.0598966)
    writing force and moment files.

Time = 47

smoothSolver:  Solving for Ux, Initial residual = 0.02769, Final residual = 0.0027577, No Iterations 6
smoothSolver:  Solving for Uy, Initial residual = 0.0910107, Final residual = 0.00797162, No Iterations 7
smoothSolver:  Solving for Uz, Initial residual = 0.0833469, Final residual = 0.00727269, No Iterations 7
GAMG:  Solving for p, Initial residual = 0.0663249, Final residual = 0.000526462, No Iterations 8
GAMG:  Solving for p, Initial residual = 0.00562111, Final residual = 5.37975e-05, No Iterations 12
GAMG:  Solving for p, Initial residual = 0.000574364, Final residual = 5.15591e-06, No Iterations 16
time step continuity errors : sum local = 0.000246225, global = 1.47869e-06, cumulative = 0.000233183
smoothSolver:  Solving for omega, Initial residual = 0.000979767, Final residual = 6.87808e-05, No Iterations 3
smoothSolver:  Solving for k, Initial residual = 0.0152957, Final residual = 0.00112991, No Iterations 3
ExecutionTime = 92.07 s  ClockTime = 101 s

forces forces write:
    Sum of forces
        Total    : (0.754672 -0.0117897 0.285658)
        Pressure : (0.718127 -0.00636669 0.279502)
        Viscous  : (0.0365449 -0.00542301 0.00615614)
    Sum of moments
        Total    : (-0.000894377 -2.88515 -0.121553)
        Pressure : (-0.00103189 -2.82443 -0.0661474)
        Viscous  : (0.000137509 -0.0607238 -0.0554053)
    writing force and moment files.

Time = 48

smoothSolver:  Solving for Ux, Initial residual = 0.02591, Final residual = 0.00193215, No Iterations 7
smoothSolver:  Solving for Uy, Initial residual = 0.0879781, Final residual = 0.00764796, No Iterations 7
smoothSolver:  Solving for Uz, Initial residual = 0.0827534, Final residual = 0.00732352, No Iterations 7
GAMG:  Solving for p, Initial residual = 0.0651892, Final residual = 0.000526993, No Iterations 8
GAMG:  Solving for p, Initial residual = 0.00553009, Final residual = 5.39726e-05, No Iterations 12
GAMG:  Solving for p, Initial residual = 0.000569033, Final residual = 5.2628e-06, No Iterations 16
time step continuity errors : sum local = 0.000238586, global = 1.45996e-06, cumulative = 0.000234643
smoothSolver:  Solving for omega, Initial residual = 0.000924101, Final residual = 6.5622e-05, No Iterations 3
smoothSolver:  Solving for k, Initial residual = 0.0145663, Final residual = 0.00109692, No Iterations 3
ExecutionTime = 94.01 s  ClockTime = 103 s

forces forces write:
    Sum of forces
        Total    : (0.760883 0.0134843 0.281335)
        Pressure : (0.72284 0.0184656 0.275283)
        Viscous  : (0.0380434 -0.00498132 0.00605257)
    Sum of moments
        Total    : (-0.00134796 -2.83649 0.135387)
        Pressure : (-0.00146045 -2.77683 0.186257)
        Viscous  : (0.000112485 -0.0596579 -0.05087)
    writing force and moment files.

Time = 49

smoothSolver:  Solving for Ux, Initial residual = 0.0242279, Final residual = 0.00181184, No Iterations 7
smoothSolver:  Solving for Uy, Initial residual = 0.0862515, Final residual = 0.00744224, No Iterations 7
smoothSolver:  Solving for Uz, Initial residual = 0.0824424, Final residual = 0.00734676, No Iterations 7
GAMG:  Solving for p, Initial residual = 0.0640339, Final residual = 0.00053393, No Iterations 8
GAMG:  Solving for p, Initial residual = 0.0054343, Final residual = 5.38318e-05, No Iterations 12
GAMG:  Solving for p, Initial residual = 0.000561627, Final residual = 5.24221e-06, No Iterations 16
time step continuity errors : sum local = 0.000225558, global = 1.45475e-06, cumulative = 0.000236098
smoothSolver:  Solving for omega, Initial residual = 0.000872884, Final residual = 6.27754e-05, No Iterations 3
smoothSolver:  Solving for k, Initial residual = 0.0138729, Final residual = 0.00106552, No Iterations 3
ExecutionTime = 95.88 s  ClockTime = 104 s

forces forces write:
    Sum of forces
        Total    : (0.765317 0.0316355 0.28021)
        Pressure : (0.725753 0.0361783 0.274324)
        Viscous  : (0.0395635 -0.00454282 0.00588655)
    Sum of moments
        Total    : (-0.00169201 -2.82167 0.319697)
        Pressure : (-0.00177968 -2.76372 0.366082)
        Viscous  : (8.76736e-05 -0.0579435 -0.0463845)
    writing force and moment files.

Time = 50

smoothSolver:  Solving for Ux, Initial residual = 0.0227337, Final residual = 0.00170837, No Iterations 7
smoothSolver:  Solving for Uy, Initial residual = 0.084679, Final residual = 0.00722519, No Iterations 7
smoothSolver:  Solving for Uz, Initial residual = 0.0821634, Final residual = 0.00727218, No Iterations 7
GAMG:  Solving for p, Initial residual = 0.0628136, Final residual = 0.000543635, No Iterations 8
GAMG:  Solving for p, Initial residual = 0.00536118, Final residual = 4.73037e-05, No Iterations 13
GAMG:  Solving for p, Initial residual = 0.00055316, Final residual = 5.25578e-06, No Iterations 16
time step continuity errors : sum local = 0.000214519, global = 1.56929e-06, cumulative = 0.000237667
smoothSolver:  Solving for omega, Initial residual = 0.000827196, Final residual = 6.0203e-05, No Iterations 3
smoothSolver:  Solving for k, Initial residual = 0.0132704, Final residual = 0.00103635, No Iterations 3
ExecutionTime = 97.72 s  ClockTime = 106 s

forces forces write:
    Sum of forces
        Total    : (0.769312 0.0451894 0.291364)
        Pressure : (0.728308 0.0493211 0.285638)
        Viscous  : (0.041004 -0.00413164 0.00572571)
    Sum of moments
        Total    : (-0.00203857 -2.93215 0.457112)
        Pressure : (-0.00210275 -2.87588 0.4993)
        Viscous  : (6.41786e-05 -0.056262 -0.0421876)
    writing force and moment files.

Time = 51

smoothSolver:  Solving for Ux, Initial residual = 0.0214114, Final residual = 0.00161488, No Iterations 7
smoothSolver:  Solving for Uy, Initial residual = 0.0833097, Final residual = 0.00701824, No Iterations 7
smoothSolver:  Solving for Uz, Initial residual = 0.0815578, Final residual = 0.00715315, No Iterations 7
GAMG:  Solving for p, Initial residual = 0.0618553, Final residual = 0.000555202, No Iterations 8
GAMG:  Solving for p, Initial residual = 0.00530318, Final residual = 4.7044e-05, No Iterations 13
GAMG:  Solving for p, Initial residual = 0.000554072, Final residual = 5.11608e-06, No Iterations 16
time step continuity errors : sum local = 0.00019757, global = -1.2379e-06, cumulative = 0.000236429
smoothSolver:  Solving for omega, Initial residual = 0.000788139, Final residual = 5.76852e-05, No Iterations 3
smoothSolver:  Solving for k, Initial residual = 0.0127556, Final residual = 0.00100993, No Iterations 3
ExecutionTime = 99.63 s  ClockTime = 108 s

forces forces write:
    Sum of forces
        Total    : (0.771106 0.0560926 0.313806)
        Pressure : (0.728706 0.0598146 0.308171)
        Viscous  : (0.0423998 -0.00372199 0.00563557)
    Sum of moments
        Total    : (-0.00241824 -3.15794 0.567456)
        Pressure : (-0.00245741 -3.10266 0.605471)
        Viscous  : (3.9165e-05 -0.055283 -0.0380155)
    writing force and moment files.

Time = 52

smoothSolver:  Solving for Ux, Initial residual = 0.0201403, Final residual = 0.001523, No Iterations 7
smoothSolver:  Solving for Uy, Initial residual = 0.0822413, Final residual = 0.00682375, No Iterations 7
smoothSolver:  Solving for Uz, Initial residual = 0.0806908, Final residual = 0.0070099, No Iterations 7
GAMG:  Solving for p, Initial residual = 0.0611237, Final residual = 0.000577223, No Iterations 8
GAMG:  Solving for p, Initial residual = 0.00529851, Final residual = 4.89742e-05, No Iterations 13
GAMG:  Solving for p, Initial residual = 0.000557728, Final residual = 5.36283e-06, No Iterations 16
time step continuity errors : sum local = 0.00019495, global = -1.24945e-06, cumulative = 0.00023518
smoothSolver:  Solving for omega, Initial residual = 0.000753462, Final residual = 5.52555e-05, No Iterations 3
smoothSolver:  Solving for k, Initial residual = 0.0122955, Final residual = 0.0009847, No Iterations 3
ExecutionTime = 101.56 s  ClockTime = 110 s

forces forces write:
    Sum of forces
        Total    : (0.769032 0.0651706 0.341498)
        Pressure : (0.725328 0.0684471 0.335803)
        Viscous  : (0.043704 -0.0032765 0.00569459)
    Sum of moments
        Total    : (-0.00279619 -3.43777 0.65909)
        Pressure : (-0.00281126 -3.38197 0.692582)
        Viscous  : (1.50706e-05 -0.0557957 -0.0334924)
    writing force and moment files.

Time = 53

smoothSolver:  Solving for Ux, Initial residual = 0.0189607, Final residual = 0.00143057, No Iterations 7
smoothSolver:  Solving for Uy, Initial residual = 0.0812598, Final residual = 0.0066298, No Iterations 7
smoothSolver:  Solving for Uz, Initial residual = 0.0798382, Final residual = 0.00686714, No Iterations 7
GAMG:  Solving for p, Initial residual = 0.0605188, Final residual = 0.000461415, No Iterations 9
GAMG:  Solving for p, Initial residual = 0.0052353, Final residual = 4.72219e-05, No Iterations 13
GAMG:  Solving for p, Initial residual = 0.000542285, Final residual = 5.37283e-06, No Iterations 16
time step continuity errors : sum local = 0.00018368, global = -1.27716e-06, cumulative = 0.000233903
smoothSolver:  Solving for omega, Initial residual = 0.000723956, Final residual = 5.30328e-05, No Iterations 3
smoothSolver:  Solving for k, Initial residual = 0.011874, Final residual = 0.000961761, No Iterations 3
ExecutionTime = 103.57 s  ClockTime = 112 s

forces forces write:
    Sum of forces
        Total    : (0.763023 0.0734716 0.369975)
        Pressure : (0.718081 0.0762833 0.364109)
        Viscous  : (0.0449422 -0.00281173 0.00586623)
    Sum of moments
        Total    : (-0.00315129 -3.72635 0.742629)
        Pressure : (-0.00314564 -3.66891 0.771411)
        Viscous  : (-5.64571e-06 -0.0574347 -0.0287815)
    writing force and moment files.

Time = 54

smoothSolver:  Solving for Ux, Initial residual = 0.0178661, Final residual = 0.00133724, No Iterations 7
smoothSolver:  Solving for Uy, Initial residual = 0.0801742, Final residual = 0.0064504, No Iterations 7
smoothSolver:  Solving for Uz, Initial residual = 0.078949, Final residual = 0.00674969, No Iterations 7
GAMG:  Solving for p, Initial residual = 0.0598635, Final residual = 0.00049445, No Iterations 9
GAMG:  Solving for p, Initial residual = 0.00530048, Final residual = 5.01444e-05, No Iterations 13
GAMG:  Solving for p, Initial residual = 0.000548766, Final residual = 4.9319e-06, No Iterations 17
time step continuity errors : sum local = 0.000157969, global = -1.21009e-06, cumulative = 0.000232692
smoothSolver:  Solving for omega, Initial residual = 0.000697968, Final residual = 5.12017e-05, No Iterations 3
smoothSolver:  Solving for k, Initial residual = 0.0114795, Final residual = 0.000941092, No Iterations 3
ExecutionTime = 105.86 s  ClockTime = 115 s

forces forces write:
    Sum of forces
        Total    : (0.753572 0.0815785 0.395264)
        Pressure : (0.707648 0.0838814 0.389105)
        Viscous  : (0.0459239 -0.00230289 0.00615899)
    Sum of moments
        Total    : (-0.00347378 -3.98332 0.824055)
        Pressure : (-0.003449 -3.92303 0.847688)
        Viscous  : (-2.47735e-05 -0.0602978 -0.0236333)
    writing force and moment files.

Time = 55

smoothSolver:  Solving for Ux, Initial residual = 0.0168122, Final residual = 0.00167476, No Iterations 6
smoothSolver:  Solving for Uy, Initial residual = 0.0787714, Final residual = 0.00628233, No Iterations 7
smoothSolver:  Solving for Uz, Initial residual = 0.0779234, Final residual = 0.00664457, No Iterations 7
GAMG:  Solving for p, Initial residual = 0.0590992, Final residual = 0.000522731, No Iterations 9
GAMG:  Solving for p, Initial residual = 0.00530597, Final residual = 4.46844e-05, No Iterations 14
GAMG:  Solving for p, Initial residual = 0.000551694, Final residual = 5.04899e-06, No Iterations 17
time step continuity errors : sum local = 0.000152015, global = -1.20772e-06, cumulative = 0.000231485
smoothSolver:  Solving for omega, Initial residual = 0.00066937, Final residual = 4.94333e-05, No Iterations 3
smoothSolver:  Solving for k, Initial residual = 0.0111024, Final residual = 0.000921138, No Iterations 3
ExecutionTime = 108.16 s  ClockTime = 117 s

forces forces write:
    Sum of forces
        Total    : (0.745024 0.088217 0.40713)
        Pressure : (0.698343 0.090006 0.400657)
        Viscous  : (0.0466812 -0.00178901 0.0064733)
    Sum of moments
        Total    : (-0.00371148 -4.10431 0.890558)
        Pressure : (-0.00367038 -4.04092 0.908991)
        Viscous  : (-4.11051e-05 -0.0633904 -0.0184331)
    writing force and moment files.

Time = 56

smoothSolver:  Solving for Ux, Initial residual = 0.0158142, Final residual = 0.00118101, No Iterations 7
smoothSolver:  Solving for Uy, Initial residual = 0.076675, Final residual = 0.00610196, No Iterations 7
smoothSolver:  Solving for Uz, Initial residual = 0.0760853, Final residual = 0.00648249, No Iterations 7
GAMG:  Solving for p, Initial residual = 0.0579623, Final residual = 0.000531576, No Iterations 9
GAMG:  Solving for p, Initial residual = 0.0053258, Final residual = 4.65957e-05, No Iterations 14
GAMG:  Solving for p, Initial residual = 0.00055766, Final residual = 5.50447e-06, No Iterations 17
time step continuity errors : sum local = 0.000155138, global = -1.25198e-06, cumulative = 0.000230233
smoothSolver:  Solving for omega, Initial residual = 0.000643631, Final residual = 4.78473e-05, No Iterations 3
[...]
ExecutionTime = 849.6 s  ClockTime = 881 s

forces forces write:
    Sum of forces
        Total    : (0.503537 0.00018791 0.244996)
        Pressure : (0.441921 0.000844345 0.238971)
        Viscous  : (0.0616156 -0.000656435 0.006025)
    Sum of moments
        Total    : (-1.65695e-05 -2.50116 0.00128969)
        Pressure : (-7.95028e-05 -2.44251 0.00786737)
        Viscous  : (6.29333e-05 -0.0586496 -0.00657767)
    writing force and moment files.

fieldAverage fieldAverage write:
    Calculating averages

Time = 488

smoothSolver:  Solving for Ux, Initial residual = 0.000643168, Final residual = 6.19262e-05, No Iterations 8
smoothSolver:  Solving for Uy, Initial residual = 0.00368194, Final residual = 0.000322255, No Iterations 8
smoothSolver:  Solving for Uz, Initial residual = 0.00424708, Final residual = 0.000353962, No Iterations 8
GAMG:  Solving for p, Initial residual = 0.00406026, Final residual = 3.76016e-05, No Iterations 6
GAMG:  Solving for p, Initial residual = 0.000597006, Final residual = 4.66411e-06, No Iterations 8
GAMG:  Solving for p, Initial residual = 5.43617e-05, Final residual = 4.61825e-07, No Iterations 10
time step continuity errors : sum local = 4.80779e-06, global = 1.41719e-07, cumulative = 0.000218064
smoothSolver:  Solving for omega, Initial residual = 5.39061e-05, Final residual = 4.09786e-06, No Iterations 3
smoothSolver:  Solving for k, Initial residual = 0.000338111, Final residual = 2.95714e-05, No Iterations 3
ExecutionTime = 851.23 s  ClockTime = 882 s

forces forces write:
    Sum of forces
        Total    : (0.496884 0.000693957 0.243199)
        Pressure : (0.435233 0.00139707 0.237195)
        Viscous  : (0.0616513 -0.000703111 0.00600452)
    Sum of moments
        Total    : (-7.70797e-05 -2.48357 0.00630553)
        Pressure : (-0.000144836 -2.42513 0.0133551)
        Viscous  : (6.77564e-05 -0.0584393 -0.00704954)
    writing force and moment files.

fieldAverage fieldAverage write:
    Calculating averages

Time = 489

smoothSolver:  Solving for Ux, Initial residual = 0.000663465, Final residual = 6.48408e-05, No Iterations 8
smoothSolver:  Solving for Uy, Initial residual = 0.00381187, Final residual = 0.000338975, No Iterations 8
smoothSolver:  Solving for Uz, Initial residual = 0.00434225, Final residual = 0.000371202, No Iterations 8
GAMG:  Solving for p, Initial residual = 0.00410783, Final residual = 3.8728e-05, No Iterations 6
GAMG:  Solving for p, Initial residual = 0.000609977, Final residual = 4.74772e-06, No Iterations 8
GAMG:  Solving for p, Initial residual = 5.48544e-05, Final residual = 4.87549e-07, No Iterations 10
time step continuity errors : sum local = 5.06978e-06, global = 1.63893e-07, cumulative = 0.000218228
smoothSolver:  Solving for omega, Initial residual = 5.33714e-05, Final residual = 4.026e-06, No Iterations 3
smoothSolver:  Solving for k, Initial residual = 0.000336592, Final residual = 2.91536e-05, No Iterations 3
ExecutionTime = 852.88 s  ClockTime = 884 s

forces forces write:
    Sum of forces
        Total    : (0.491222 0.00114051 0.241545)
        Pressure : (0.429561 0.00185759 0.235553)
        Viscous  : (0.0616608 -0.000717074 0.00599248)
    Sum of moments
        Total    : (-0.00013572 -2.46733 0.0107317)
        Pressure : (-0.000205229 -2.40902 0.0179236)
        Viscous  : (6.95087e-05 -0.0583165 -0.00719194)
    writing force and moment files.

fieldAverage fieldAverage write:
    Calculating averages

Time = 490

smoothSolver:  Solving for Ux, Initial residual = 0.000679523, Final residual = 6.75629e-05, No Iterations 8
smoothSolver:  Solving for Uy, Initial residual = 0.00396393, Final residual = 0.000363371, No Iterations 8
smoothSolver:  Solving for Uz, Initial residual = 0.00444645, Final residual = 0.000396767, No Iterations 8
GAMG:  Solving for p, Initial residual = 0.00415873, Final residual = 3.8653e-05, No Iterations 6
GAMG:  Solving for p, Initial residual = 0.00061771, Final residual = 5.99027e-06, No Iterations 7
GAMG:  Solving for p, Initial residual = 5.55297e-05, Final residual = 5.53013e-07, No Iterations 10
time step continuity errors : sum local = 5.74208e-06, global = -1.59076e-07, cumulative = 0.000218069
smoothSolver:  Solving for omega, Initial residual = 5.26228e-05, Final residual = 4.01753e-06, No Iterations 3
smoothSolver:  Solving for k, Initial residual = 0.000334713, Final residual = 2.88401e-05, No Iterations 3
ExecutionTime = 854.51 s  ClockTime = 886 s

forces forces write:
    Sum of forces
        Total    : (0.487298 0.00115792 0.240266)
        Pressure : (0.425657 0.00188046 0.234258)
        Viscous  : (0.0616409 -0.000722536 0.00600816)
    Sum of moments
        Total    : (-0.000155708 -2.45478 0.0108446)
        Pressure : (-0.000226416 -2.3963 0.018093)
        Viscous  : (7.07082e-05 -0.0584757 -0.00724842)
    writing force and moment files.

fieldAverage fieldAverage write:
    Calculating averages

Time = 491

smoothSolver:  Solving for Ux, Initial residual = 0.000695385, Final residual = 5.34314e-05, No Iterations 9
smoothSolver:  Solving for Uy, Initial residual = 0.0041388, Final residual = 0.000390657, No Iterations 8
smoothSolver:  Solving for Uz, Initial residual = 0.00453439, Final residual = 0.000423591, No Iterations 8
GAMG:  Solving for p, Initial residual = 0.00419084, Final residual = 3.82681e-05, No Iterations 6
GAMG:  Solving for p, Initial residual = 0.000620818, Final residual = 5.59454e-06, No Iterations 7
GAMG:  Solving for p, Initial residual = 5.52088e-05, Final residual = 5.50729e-07, No Iterations 10
time step continuity errors : sum local = 5.70749e-06, global = -1.54231e-07, cumulative = 0.000217914
smoothSolver:  Solving for omega, Initial residual = 5.15949e-05, Final residual = 4.01709e-06, No Iterations 3
smoothSolver:  Solving for k, Initial residual = 0.000333925, Final residual = 2.89051e-05, No Iterations 3
ExecutionTime = 856.12 s  ClockTime = 887 s

forces forces write:
    Sum of forces
        Total    : (0.486033 0.00104998 0.239443)
        Pressure : (0.424432 0.00175245 0.233405)
        Viscous  : (0.0616007 -0.000702475 0.00603845)
    Sum of moments
        Total    : (-0.000162728 -2.44665 0.00971884)
        Pressure : (-0.000232158 -2.38786 0.0167668)
        Viscous  : (6.94291e-05 -0.0587843 -0.00704793)
    writing force and moment files.

fieldAverage fieldAverage write:
    Calculating averages

Time = 492

smoothSolver:  Solving for Ux, Initial residual = 0.000703722, Final residual = 5.41742e-05, No Iterations 9
smoothSolver:  Solving for Uy, Initial residual = 0.00431504, Final residual = 0.000415351, No Iterations 8
smoothSolver:  Solving for Uz, Initial residual = 0.00459979, Final residual = 0.000446061, No Iterations 8
GAMG:  Solving for p, Initial residual = 0.00424404, Final residual = 3.72945e-05, No Iterations 6
GAMG:  Solving for p, Initial residual = 0.00062573, Final residual = 4.9797e-06, No Iterations 7
GAMG:  Solving for p, Initial residual = 5.53263e-05, Final residual = 5.08003e-07, No Iterations 10
time step continuity errors : sum local = 5.25368e-06, global = -1.40823e-07, cumulative = 0.000217773
smoothSolver:  Solving for omega, Initial residual = 5.08471e-05, Final residual = 4.01873e-06, No Iterations 3
smoothSolver:  Solving for k, Initial residual = 0.000333256, Final residual = 2.92771e-05, No Iterations 3
ExecutionTime = 857.73 s  ClockTime = 889 s

forces forces write:
    Sum of forces
        Total    : (0.487271 0.000285294 0.239177)
        Pressure : (0.425719 0.000959583 0.233081)
        Viscous  : (0.0615526 -0.000674289 0.00609575)
    Sum of moments
        Total    : (-0.000105959 -2.44399 0.00198929)
        Pressure : (-0.000173535 -2.38462 0.00875496)
        Viscous  : (6.75768e-05 -0.0593662 -0.00676567)
    writing force and moment files.

fieldAverage fieldAverage write:
    Calculating averages

Time = 493

smoothSolver:  Solving for Ux, Initial residual = 0.000701638, Final residual = 7.00158e-05, No Iterations 8
smoothSolver:  Solving for Uy, Initial residual = 0.00440988, Final residual = 0.000424382, No Iterations 8
smoothSolver:  Solving for Uz, Initial residual = 0.00461015, Final residual = 0.000452262, No Iterations 8
GAMG:  Solving for p, Initial residual = 0.00428702, Final residual = 3.59967e-05, No Iterations 6
GAMG:  Solving for p, Initial residual = 0.000626835, Final residual = 5.94596e-06, No Iterations 6
GAMG:  Solving for p, Initial residual = 5.56651e-05, Final residual = 4.37902e-07, No Iterations 11
time step continuity errors : sum local = 4.51969e-06, global = -4.26753e-08, cumulative = 0.000217731
smoothSolver:  Solving for omega, Initial residual = 4.99402e-05, Final residual = 4.0032e-06, No Iterations 3
smoothSolver:  Solving for k, Initial residual = 0.000331604, Final residual = 2.95929e-05, No Iterations 3
ExecutionTime = 859.39 s  ClockTime = 891 s

forces forces write:
    Sum of forces
        Total    : (0.490256 -0.000844733 0.239712)
        Pressure : (0.428753 -0.000214447 0.23355)
        Viscous  : (0.0615029 -0.000630286 0.00616189)
    Sum of moments
        Total    : (-1.79942e-05 -2.44932 -0.00940951)
        Pressure : (-8.19027e-05 -2.38929 -0.00308487)
        Viscous  : (6.39085e-05 -0.060038 -0.00632464)
    writing force and moment files.

fieldAverage fieldAverage write:
    Calculating averages

Time = 494

smoothSolver:  Solving for Ux, Initial residual = 0.000688939, Final residual = 6.76508e-05, No Iterations 8
smoothSolver:  Solving for Uy, Initial residual = 0.00438925, Final residual = 0.000416776, No Iterations 8
smoothSolver:  Solving for Uz, Initial residual = 0.00455241, Final residual = 0.000444435, No Iterations 8
GAMG:  Solving for p, Initial residual = 0.00426626, Final residual = 3.43813e-05, No Iterations 6
GAMG:  Solving for p, Initial residual = 0.000627402, Final residual = 5.59667e-06, No Iterations 6
GAMG:  Solving for p, Initial residual = 5.5755e-05, Final residual = 5.18265e-07, No Iterations 10
time step continuity errors : sum local = 5.33927e-06, global = -5.29297e-08, cumulative = 0.000217678
smoothSolver:  Solving for omega, Initial residual = 4.91855e-05, Final residual = 3.95245e-06, No Iterations 3
smoothSolver:  Solving for k, Initial residual = 0.00032876, Final residual = 2.96235e-05, No Iterations 3
ExecutionTime = 860.99 s  ClockTime = 892 s

forces forces write:
    Sum of forces
        Total    : (0.494861 -0.0022331 0.240891)
        Pressure : (0.43342 -0.00164534 0.234655)
        Viscous  : (0.0614416 -0.000587762 0.00623571)
    Sum of moments
        Total    : (9.57902e-05 -2.46103 -0.0233811)
        Pressure : (3.56835e-05 -2.40024 -0.0174825)
        Viscous  : (6.01068e-05 -0.0607887 -0.00589855)
    writing force and moment files.

fieldAverage fieldAverage write:
    Calculating averages

Time = 495

smoothSolver:  Solving for Ux, Initial residual = 0.000669275, Final residual = 6.43735e-05, No Iterations 8
smoothSolver:  Solving for Uy, Initial residual = 0.00431447, Final residual = 0.00039952, No Iterations 8
smoothSolver:  Solving for Uz, Initial residual = 0.0044306, Final residual = 0.00042631, No Iterations 8
GAMG:  Solving for p, Initial residual = 0.00421959, Final residual = 3.32675e-05, No Iterations 6
GAMG:  Solving for p, Initial residual = 0.000621687, Final residual = 5.3265e-06, No Iterations 6
GAMG:  Solving for p, Initial residual = 5.5159e-05, Final residual = 4.31512e-07, No Iterations 10
time step continuity errors : sum local = 4.43867e-06, global = -3.2376e-08, cumulative = 0.000217645
smoothSolver:  Solving for omega, Initial residual = 4.81714e-05, Final residual = 3.84409e-06, No Iterations 3
smoothSolver:  Solving for k, Initial residual = 0.000325278, Final residual = 2.9182e-05, No Iterations 3
ExecutionTime = 862.62 s  ClockTime = 894 s

forces forces write:
    Sum of forces
        Total    : (0.500146 -0.0036243 0.242577)
        Pressure : (0.438777 -0.00309165 0.236272)
        Viscous  : (0.0613694 -0.000532653 0.00630553)
    Sum of moments
        Total    : (0.000210156 -2.47783 -0.0373497)
        Pressure : (0.000155809 -2.41633 -0.0320036)
        Viscous  : (5.43473e-05 -0.0615002 -0.00534607)
    writing force and moment files.

fieldAverage fieldAverage write:
    Calculating averages

Time = 496

smoothSolver:  Solving for Ux, Initial residual = 0.00064291, Final residual = 6.07733e-05, No Iterations 8
smoothSolver:  Solving for Uy, Initial residual = 0.00417171, Final residual = 0.000375694, No Iterations 8
smoothSolver:  Solving for Uz, Initial residual = 0.00425974, Final residual = 0.000398421, No Iterations 8
GAMG:  Solving for p, Initial residual = 0.00412749, Final residual = 3.30805e-05, No Iterations 6
GAMG:  Solving for p, Initial residual = 0.000604318, Final residual = 5.28451e-06, No Iterations 6
GAMG:  Solving for p, Initial residual = 5.42184e-05, Final residual = 5.16699e-07, No Iterations 9
time step continuity errors : sum local = 5.30948e-06, global = 7.49043e-09, cumulative = 0.000217653
smoothSolver:  Solving for omega, Initial residual = 4.69432e-05, Final residual = 3.73723e-06, No Iterations 3
smoothSolver:  Solving for k, Initial residual = 0.00032146, Final residual = 2.84921e-05, No Iterations 3
ExecutionTime = 864.22 s  ClockTime = 896 s

forces forces write:
    Sum of forces
        Total    : (0.505224 -0.00512209 0.244741)
        Pressure : (0.443938 -0.00465101 0.238351)
        Viscous  : (0.0612859 -0.000471085 0.00638983)
    Sum of moments
        Total    : (0.000329735 -2.49945 -0.0523634)
        Pressure : (0.000282115 -2.43709 -0.0476344)
        Viscous  : (4.76203e-05 -0.0623581 -0.00472904)
    writing force and moment files.

fieldAverage fieldAverage write:
    Calculating averages

Time = 497

smoothSolver:  Solving for Ux, Initial residual = 0.000617902, Final residual = 5.72432e-05, No Iterations 8
smoothSolver:  Solving for Uy, Initial residual = 0.00402051, Final residual = 0.000352883, No Iterations 8
smoothSolver:  Solving for Uz, Initial residual = 0.00405895, Final residual = 0.000366434, No Iterations 8
GAMG:  Solving for p, Initial residual = 0.00402625, Final residual = 3.35667e-05, No Iterations 6
GAMG:  Solving for p, Initial residual = 0.000582075, Final residual = 5.56812e-06, No Iterations 6
GAMG:  Solving for p, Initial residual = 5.29484e-05, Final residual = 4.11655e-07, No Iterations 10
time step continuity errors : sum local = 4.22721e-06, global = 1.19967e-07, cumulative = 0.000217773
smoothSolver:  Solving for omega, Initial residual = 4.57632e-05, Final residual = 3.66644e-06, No Iterations 3
smoothSolver:  Solving for k, Initial residual = 0.000317998, Final residual = 2.79398e-05, No Iterations 3
ExecutionTime = 865.8 s  ClockTime = 897 s

forces forces write:
    Sum of forces
        Total    : (0.50978 -0.0062962 0.247439)
        Pressure : (0.448587 -0.00590871 0.240969)
        Viscous  : (0.0611927 -0.000387487 0.00647029)
    Sum of moments
        Total    : (0.000413904 -2.52649 -0.0640863)
        Pressure : (0.00037594 -2.46332 -0.0601955)
        Viscous  : (3.79639e-05 -0.0631775 -0.00389078)
    writing force and moment files.

fieldAverage fieldAverage write:
    Calculating averages

Time = 498

smoothSolver:  Solving for Ux, Initial residual = 0.000592852, Final residual = 5.39752e-05, No Iterations 8
smoothSolver:  Solving for Uy, Initial residual = 0.00391607, Final residual = 0.000339103, No Iterations 8
smoothSolver:  Solving for Uz, Initial residual = 0.00387949, Final residual = 0.000340005, No Iterations 8
GAMG:  Solving for p, Initial residual = 0.00394769, Final residual = 3.41651e-05, No Iterations 6
GAMG:  Solving for p, Initial residual = 0.000562853, Final residual = 4.37891e-06, No Iterations 7
GAMG:  Solving for p, Initial residual = 5.02116e-05, Final residual = 3.83764e-07, No Iterations 10
time step continuity errors : sum local = 3.93954e-06, global = 6.54078e-08, cumulative = 0.000217838
smoothSolver:  Solving for omega, Initial residual = 4.49796e-05, Final residual = 3.61431e-06, No Iterations 3
smoothSolver:  Solving for k, Initial residual = 0.000316209, Final residual = 2.75762e-05, No Iterations 3
ExecutionTime = 867.4 s  ClockTime = 899 s

forces forces write:
    Sum of forces
        Total    : (0.513612 -0.00707961 0.250335)
        Pressure : (0.452536 -0.00679558 0.24379)
        Viscous  : (0.0610755 -0.000284026 0.00654443)
    Sum of moments
        Total    : (0.000462137 -2.55557 -0.071853)
        Pressure : (0.000435969 -2.49164 -0.0690001)
        Viscous  : (2.61677e-05 -0.0639345 -0.00285291)
    writing force and moment files.

fieldAverage fieldAverage write:
    Calculating averages

Time = 499

smoothSolver:  Solving for Ux, Initial residual = 0.000572867, Final residual = 5.13581e-05, No Iterations 8
smoothSolver:  Solving for Uy, Initial residual = 0.00385136, Final residual = 0.000333632, No Iterations 8
smoothSolver:  Solving for Uz, Initial residual = 0.00376041, Final residual = 0.000322301, No Iterations 8
GAMG:  Solving for p, Initial residual = 0.00387361, Final residual = 3.44858e-05, No Iterations 6
GAMG:  Solving for p, Initial residual = 0.00054421, Final residual = 4.42613e-06, No Iterations 7
GAMG:  Solving for p, Initial residual = 4.78806e-05, Final residual = 4.11745e-07, No Iterations 10
time step continuity errors : sum local = 4.2265e-06, global = 5.90518e-08, cumulative = 0.000217897
smoothSolver:  Solving for omega, Initial residual = 4.46164e-05, Final residual = 3.57313e-06, No Iterations 3
smoothSolver:  Solving for k, Initial residual = 0.000315372, Final residual = 2.73937e-05, No Iterations 3
ExecutionTime = 869.03 s  ClockTime = 900 s

forces forces write:
    Sum of forces
        Total    : (0.516682 -0.0075276 0.253406)
        Pressure : (0.45575 -0.0073567 0.246805)
        Viscous  : (0.0609323 -0.0001709 0.00660119)
    Sum of moments
        Total    : (0.000477892 -2.58646 -0.0762295)
        Pressure : (0.000464226 -2.52194 -0.0745116)
        Viscous  : (1.36654e-05 -0.0645181 -0.00171792)
    writing force and moment files.

fieldAverage fieldAverage write:
    Calculating averages

Time = 500

smoothSolver:  Solving for Ux, Initial residual = 0.000562815, Final residual = 4.99767e-05, No Iterations 8
smoothSolver:  Solving for Uy, Initial residual = 0.00382703, Final residual = 0.000334826, No Iterations 8
smoothSolver:  Solving for Uz, Initial residual = 0.00369374, Final residual = 0.000312959, No Iterations 8
GAMG:  Solving for p, Initial residual = 0.00384093, Final residual = 3.44878e-05, No Iterations 6
GAMG:  Solving for p, Initial residual = 0.000534824, Final residual = 4.28818e-06, No Iterations 7
GAMG:  Solving for p, Initial residual = 4.65501e-05, Final residual = 4.32608e-07, No Iterations 10
time step continuity errors : sum local = 4.44145e-06, global = 5.01664e-08, cumulative = 0.000217948
smoothSolver:  Solving for omega, Initial residual = 4.45545e-05, Final residual = 3.5499e-06, No Iterations 3
smoothSolver:  Solving for k, Initial residual = 0.000315691, Final residual = 2.73679e-05, No Iterations 3
ExecutionTime = 870.68 s  ClockTime = 902 s

--> FOAM Warning : 
    From Foam::IOobjectList Foam::sampledSurfaces::preCheckFields()
    in file sampledSurface/sampledSurfaces/sampledSurfaces.C at line 112
    
Cannot find registered field matching 1(kMean)
forces forces write:
    Sum of forces
        Total    : (0.519059 -0.00754734 0.256476)
        Pressure : (0.458288 -0.00750081 0.249853)
        Viscous  : (0.0607712 -4.65277e-05 0.00662315)
    Sum of moments
        Total    : (0.000454386 -2.61734 -0.0762882)
        Pressure : (0.000453972 -2.55259 -0.0758181)
        Viscous  : (4.13942e-07 -0.0647523 -0.000470096)
    writing force and moment files.

fieldAverage fieldAverage write:
    Calculating averages

    Writing average fields

End

Finalising parallel run
