/*---------------------------------------------------------------------------*\
| =========                 |                                                 |
| \\      /  F ield         | OpenFOAM: The Open Source CFD Toolbox           |
|  \\    /   O peration     | Version:  2406                                  |
|   \\  /    A nd           | Website:  www.openfoam.com                      |
|    \\/     M anipulation  |                                                 |
\*---------------------------------------------------------------------------*/
Build  : _630d60de3b-20240620 OPENFOAM=2406 version=v2406
Arch   : "LSB;label=32;scalar=64"
Exec   : snappyHexMesh -overwrite -parallel
Date   : Nov 21 2024
Time   : 14:20:33
Host   : MacBook-Air-de-Denis.local
PID    : 34464
I/O    : uncollated
Case   : /Users/df/Documents/3A/POLI48/OpenFoamSim/ahmedBetterV1
nProcs : 4
Hosts  :
(
    (MacBook-Air-de-Denis.local 4)
)
Pstream initialized with:
    floatTransfer      : false
    maxCommsSize       : 0
    nProcsSimpleSum    : 0
    nonBlockingExchange: 0 (tuning: 0)
    exchange algorithm : 0
    commsType          : nonBlocking
    polling iterations : 0
trapFpe: Floating point exception trapping enabled (FOAM_SIGFPE).
fileModificationChecking : Monitoring run-time modified files using timeStampMaster (fileModificationSkew 5, maxFileModificationPolls 20)
allowSystemOperations : Allowing user-supplied system call operations

// * * * * * * * * * * * * * * * * * * * * * * * * * * * * * * * * * * * * * //
Create time

Create mesh for time = 0

Read mesh in = 0.01 s

Overall mesh bounding box  : (-1.3 -0.25 -0.0218) (3 0.25 0.4782)
Relative tolerance         : 1e-06
Absolute matching distance : 4.35775e-06

Reading refinement surfaces.
Read refinement surfaces in = 0 s

Reading refinement shells.
Refinement level 1 for all cells inside refinementBox1
Refinement level 2 for all cells inside refinementBox2
Refinement level 3 for all cells inside refinementBox3
Read refinement shells in = 0 s

Setting refinement level of surface to be consistent with shells.
For geometry ahmedBody.stl detected 0 uncached triangles out of 1224
Checked shell refinement in = 0 s

Reading features.
Read edgeMesh ahmedBody.eMesh
    points      : 608
    edges       : 648
    boundingBox : (0.00156791 -0.0537754 0) (0.288109 0.0537754 0.122626)

Refinement level according to distance to "ahmedBody.eMesh" (608 points, 648 edges).
    level 3 for all cells within 0 metre.
Read features in = 0.01 s


Determining initial surface intersections
-----------------------------------------

Edge intersection testing:
    Number of edges             : 131835
    Number of edges to retest   : 0
    Number of intersected edges : 0
Edge intersection testing:
    Number of edges             : 131835
    Number of edges to retest   : 131835
    Number of intersected edges : 155
Calculated surface intersections in = 0.04 s

Initial mesh : cells:42194  faces:131835  points:47628  unbalance:0.00990662
Cells per refinement level:
    0	42194
Setting refinement level of surface to be consistent with curvature.
Checked curvature refinement in = 0 s


Adding patches for surface regions
----------------------------------

Patch Type                Region                        
----- ----                ------                        
ahmedBody:

5     wall                ahmedBody                     

Added patches in = 0 s

Edge intersection testing:
    Number of edges             : 131835
    Number of edges to retest   : 0
    Number of intersected edges : 155
Decomposition method scotch [4]

Refinement phase
----------------

Found point (-1.001 -0.201 0.201) in cell 4460 on processor 3

Feature refinement iteration 0
------------------------------

Marked for refinement due to explicit features             : 72 cells.
Determined cells to refine in = 0.1 s
Selected for feature refinement : 72 cells (out of 42194)
Edge intersection testing:
    Number of edges             : 133749
    Number of edges to retest   : 2995
    Number of intersected edges : 628
Refined mesh in = 0.04 s
After refinement feature refinement iteration 0 : cells:42698  faces:133749  points:48594  unbalance:0.0452012
Cells per refinement level:
    0	42122
    1	576
Skipping balancing since max unbalance 0.0452012 is less than allowable 0.1

Feature refinement iteration 1
------------------------------

Marked for refinement due to explicit features             : 144 cells.
Determined cells to refine in = 0.08 s
Selected for feature refinement : 263 cells (out of 42698)
Edge intersection testing:
    Number of edges             : 140355
    Number of edges to retest   : 9746
    Number of intersected edges : 1473
Refined mesh in = 0.04 s
After refinement feature refinement iteration 1 : cells:44539  faces:140355  points:51625  unbalance:0.167336
Cells per refinement level:
    0	42003
    1	1384
    2	1152
Balancing since max unbalance 0.167336 is larger than allowable 0.1
Balanced mesh in = 0.27 s
After balancing feature refinement iteration 1 : cells:44539  faces:140355  points:51625  unbalance:0.0100361
Cells per refinement level:
    0	42003
    1	1384
    2	1152

Feature refinement iteration 2
------------------------------

Marked for refinement due to explicit features             : 340 cells.
Determined cells to refine in = 0.09 s
Selected for feature refinement : 724 cells (out of 44539)
Edge intersection testing:
    Number of edges             : 158520
    Number of edges to retest   : 27085
    Number of intersected edges : 3274
Refined mesh in = 0.06 s
After refinement feature refinement iteration 2 : cells:49607  faces:158520  points:59964  unbalance:0.305864
Cells per refinement level:
    0	41915
    1	1792
    2	3180
    3	2720
Balancing since max unbalance 0.305864 is larger than allowable 0.1
Balanced mesh in = 0.2 s
After balancing feature refinement iteration 2 : cells:49607  faces:158520  points:59964  unbalance:0.00449533
Cells per refinement level:
    0	41915
    1	1792
    2	3180
    3	2720

Feature refinement iteration 3
------------------------------

Marked for refinement due to explicit features             : 0 cells.
Determined cells to refine in = 0.11 s
Selected for feature refinement : 0 cells (out of 49607)
Stopping refining since too few cells selected.


Surface refinement iteration 0
------------------------------

Marked for refinement due to surface intersection          : 3410 cells.
Determined cells to refine in = 0 s
Selected for refinement : 3871 cells (out of 49607)
Edge intersection testing:
    Number of edges             : 248751
    Number of edges to retest   : 116372
    Number of intersected edges : 11058
Refined mesh in = 0.18 s
After refinement surface refinement iteration 0 : cells:76704  faces:248751  points:96358  unbalance:1.05689
Cells per refinement level:
    0	41794
    1	1962
    2	8092
    3	13016
    4	11840
Balancing since max unbalance 1.05689 is larger than allowable 0.1
Balanced mesh in = 0.44 s
After balancing surface refinement iteration 0 : cells:76704  faces:248751  points:96358  unbalance:0.00990822
Cells per refinement level:
    0	41794
    1	1962
    2	8092
    3	13016
    4	11840

Surface refinement iteration 1
------------------------------

Marked for refinement due to surface intersection          : 8310 cells.
Determined cells to refine in = 0.01 s
Selected for refinement : 8982 cells (out of 76704)
Edge intersection testing:
    Number of edges             : 450804
    Number of edges to retest   : 287756
    Number of intersected edges : 24484
Refined mesh in = 0.26 s
After refinement surface refinement iteration 1 : cells:139578  faces:450804  points:172489  unbalance:0.482125
Cells per refinement level:
    0	41788
    1	1644
    2	7980
    3	31766
    4	56400
Balancing since max unbalance 0.482125 is larger than allowable 0.1
Balanced mesh in = 0.65 s
After balancing surface refinement iteration 1 : cells:139578  faces:450804  points:172489  unbalance:0.00912751
Cells per refinement level:
    0	41788
    1	1644
    2	7980
    3	31766
    4	56400

Surface refinement iteration 2
------------------------------

Marked for refinement due to surface intersection          : 10776 cells.
Determined cells to refine in = 0.01 s
Selected for refinement : 11648 cells (out of 139578)
Edge intersection testing:
    Number of edges             : 709779
    Number of edges to retest   : 369955
    Number of intersected edges : 40722
Refined mesh in = 0.26 s
After refinement surface refinement iteration 2 : cells:221114  faces:709779  points:267950  unbalance:0.368036
Cells per refinement level:
    0	41788
    1	1562
    2	7186
    3	33250
    4	137328
Balancing since max unbalance 0.368036 is larger than allowable 0.1
Balanced mesh in = 0.96 s
After balancing surface refinement iteration 2 : cells:221114  faces:709779  points:267950  unbalance:0.00995866
Cells per refinement level:
    0	41788
    1	1562
    2	7186
    3	33250
    4	137328

Surface refinement iteration 3
------------------------------

Marked for refinement due to surface intersection          : 2660 cells.
Determined cells to refine in = 0.02 s
Selected for refinement : 2756 cells (out of 221114)
Edge intersection testing:
    Number of edges             : 770796
    Number of edges to retest   : 93710
    Number of intersected edges : 44936
Refined mesh in = 0.22 s
After refinement surface refinement iteration 3 : cells:240406  faces:770796  points:290172  unbalance:0.0296249
Cells per refinement level:
    0	41788
    1	1550
    2	7194
    3	31298
    4	158576
Skipping balancing since max unbalance 0.0296249 is less than allowable 0.1

Surface refinement iteration 4
------------------------------

Marked for refinement due to surface intersection          : 8 cells.
Determined cells to refine in = 0.03 s
Selected for refinement : 8 cells (out of 240406)
Stopping refining since too few cells selected.


Removing mesh beyond surface intersections
------------------------------------------

Setting cellZones according to locationsInMesh:
Location : (-1.001 -0.201 0.201)
    cellZone : none

For cellZone none found point (-1.001 -0.201 0.201) in global region 0 out of 13 regions.
--> FOAM Warning : 
    From void Foam::meshRefinement::nearestFace(const labelUList &, const bitSet &, autoPtr<mapDistribute> &, labelList &, const label) const
    in file meshRefinement/meshRefinement.C at line 515
    Did not visit some faces, e.g. face 0 at (-0.0188356 0.132353 -0.00709412)
Keeping all cells containing inside points
Selected for keeping : 200112 cells.
Edge intersection testing:
    Number of edges             : 652523
    Number of edges to retest   : 44668
    Number of intersected edges : 44936

Shell refinement iteration 0
----------------------------

Marked for refinement due to distance to explicit features : 0 cells.
Marked for refinement due to refinement shells             : 12437 cells.
Determined cells to refine in = 0.22 s
Selected for internal refinement : 18549 cells (out of 200112)
Edge intersection testing:
    Number of edges             : 1049012
    Number of edges to retest   : 605112
    Number of intersected edges : 44936
Refined mesh in = 0.36 s
After refinement shell refinement iteration 0 : cells:329955  faces:1049012  points:389251  unbalance:0.207898
Cells per refinement level:
    0	35297
    1	51928
    2	11056
    3	47650
    4	184024
Balancing since max unbalance 0.207898 is larger than allowable 0.1
Balanced mesh in = 1.2 s
After balancing shell refinement iteration 0 : cells:329955  faces:1049012  points:389251  unbalance:0.00680396
Cells per refinement level:
    0	35297
    1	51928
    2	11056
    3	47650
    4	184024

Shell refinement iteration 1
----------------------------

Marked for refinement due to distance to explicit features : 0 cells.
Marked for refinement due to refinement shells             : 21696 cells.
Determined cells to refine in = 0.06 s
Selected for internal refinement : 21896 cells (out of 329955)
Edge intersection testing:
    Number of edges             : 1515644
    Number of edges to retest   : 620227
    Number of intersected edges : 44936
Refined mesh in = 0.59 s
After refinement shell refinement iteration 1 : cells:483227  faces:1515644  points:549398  unbalance:0.459149
Cells per refinement level:
    0	35297
    1	36680
    2	126592
    3	99034
    4	185624
Balancing since max unbalance 0.459149 is larger than allowable 0.1
Balanced mesh in = 1.76 s
After balancing shell refinement iteration 1 : cells:483227  faces:1515644  points:549398  unbalance:0.00946346
Cells per refinement level:
    0	35297
    1	36680
    2	126592
    3	99034
    4	185624

Shell refinement iteration 2
----------------------------

Marked for refinement due to distance to explicit features : 0 cells.
Marked for refinement due to refinement shells             : 22668 cells.
Determined cells to refine in = 0.07 s
Selected for internal refinement : 22668 cells (out of 483227)
Edge intersection testing:
    Number of edges             : 1996796
    Number of edges to retest   : 600552
    Number of intersected edges : 44936
Refined mesh in = 0.65 s
After refinement shell refinement iteration 2 : cells:641903  faces:1996796  points:713229  unbalance:0.226126
Cells per refinement level:
    0	35297
    1	36680
    2	103924
    3	280378
    4	185624
Balancing since max unbalance 0.226126 is larger than allowable 0.1
Balanced mesh in = 2.23 s
After balancing shell refinement iteration 2 : cells:641903  faces:1996796  points:713229  unbalance:0.00956063
Cells per refinement level:
    0	35297
    1	36680
    2	103924
    3	280378
    4	185624

Shell refinement iteration 3
----------------------------

Marked for refinement due to distance to explicit features : 0 cells.
Marked for refinement due to refinement shells             : 0 cells.
Determined cells to refine in = 0.09 s
Selected for internal refinement : 0 cells (out of 641903)
Stopping refining since too few cells selected.


Dangling coarse cells refinement iteration 0
--------------------------------------------

Determined cells to refine in = 0.01 s
Selected for refinement : 0 cells (out of 641903)
Stopping refining since too few cells selected.


Dangling coarse cells refinement iteration 0
--------------------------------------------

Determined cells to refine in = 0 s
Selected for refinement : 0 cells (out of 641903)
Stopping refining since too few cells selected.


Refinement transition refinement iteration 0
--------------------------------------------

Determined cells to refine in = 0 s
Selected for refinement : 0 cells (out of 641903)
Stopping refining since too few cells selected.


Splitting mesh at surface intersections
---------------------------------------

Introducing baffles for 44936 faces that are intersected by the surface.

Setting cellZones according to locationsInMesh:
Location : (-1.001 -0.201 0.201)
    cellZone : none

For cellZone none found point (-1.001 -0.201 0.201) in global region 0 out of 21 regions.
Edge intersection testing:
    Number of edges             : 2041732
    Number of edges to retest   : 332105
    Number of intersected edges : 89872
Created baffles in = 0.52 s


After introducing baffles : cells:641903  faces:2041732  points:713229  unbalance:0.00956063
Cells per refinement level:
    0	35297
    1	36680
    2	103924
    3	280378
    4	185624

Introducing baffles to block off problem cells
----------------------------------------------

markFacesOnProblemCells : marked 92295 additional internal faces to be converted into baffles.
Analyzed problem cells in = 0.33 s


Introducing baffles to delete problem cells.

Edge intersection testing:
    Number of edges             : 2133352
    Number of edges to retest   : 277778
    Number of intersected edges : 89872
Created baffles in = 0.46 s


After introducing baffles : cells:641903  faces:2133352  points:713963  unbalance:0.00956063
Cells per refinement level:
    0	35297
    1	36680
    2	103924
    3	280378
    4	185624
Setting cellZones according to locationsInMesh:
Location : (-1.001 -0.201 0.201)
    cellZone : none

For cellZone none found point (-1.001 -0.201 0.201) in global region 0 out of 45829 regions.
Edge intersection testing:
    Number of edges             : 2133352
    Number of edges to retest   : 414876
    Number of intersected edges : 89872

Remove unreachable sections of mesh
-----------------------------------

Keeping all cells containing points 1((-1.001 -0.201 0.201))
Selected for keeping : 594711 cells.
Edge intersection testing:
    Number of edges             : 1853148
    Number of edges to retest   : 0
    Number of intersected edges : 40962
Split mesh in = 1 s


After subsetting : cells:594711  faces:1853148  points:664000  unbalance:0.0915924
Cells per refinement level:
    0	35297
    1	36680
    2	103924
    3	280378
    4	138432

Introducing zones for interfaces
--------------------------------

Setting cellZones according to locationsInMesh:
Location : (-1.001 -0.201 0.201)
    cellZone : none

For cellZone none found point (-1.001 -0.201 0.201) in global region 0 out of 1 regions.
Setting faceZones according to neighbouring cellZones:

Edge intersection testing:
    Number of edges             : 1853148
    Number of edges to retest   : 0
    Number of intersected edges : 40962

Handling cells with snap problems
---------------------------------

Introducing baffles for 40962 faces that are intersected by the surface.

Setting cellZones according to locationsInMesh:
Location : (-1.001 -0.201 0.201)
    cellZone : none

For cellZone none found point (-1.001 -0.201 0.201) in global region 0 out of 1 regions.
Edge intersection testing:
    Number of edges             : 1853148
    Number of edges to retest   : 154804
    Number of intersected edges : 40962
Created baffles in = 0.85 s


After introducing baffles : cells:594711  faces:1853148  points:664000  unbalance:0.0915924
Cells per refinement level:
    0	35297
    1	36680
    2	103924
    3	280378
    4	138432

Introducing baffles to block off problem cells
----------------------------------------------

markFacesOnProblemCells : marked 0 additional internal faces to be converted into baffles.
Analyzed problem cells in = 0.29 s


Introducing baffles to delete problem cells.

Created baffles in = 0.04 s


After introducing baffles : cells:594711  faces:1853148  points:664000  unbalance:0.0915924
Cells per refinement level:
    0	35297
    1	36680
    2	103924
    3	280378
    4	138432
Setting cellZones according to locationsInMesh:
Location : (-1.001 -0.201 0.201)
    cellZone : none

For cellZone none found point (-1.001 -0.201 0.201) in global region 0 out of 1 regions.
Edge intersection testing:
    Number of edges             : 1853148
    Number of edges to retest   : 154804
    Number of intersected edges : 40962

Remove unreachable sections of mesh
-----------------------------------

Split mesh in = 0.47 s


After subsetting : cells:594711  faces:1853148  points:664000  unbalance:0.0915924
Cells per refinement level:
    0	35297
    1	36680
    2	103924
    3	280378
    4	138432

Merge free-standing baffles
---------------------------

freeStandingBaffles : detected 52 free-standing baffles out of 52

freeStandingBaffles : detected 52 planar (within 30 degrees) free-standing baffles out of 52

Detected free-standing baffles : 52
Edge intersection testing:
    Number of edges             : 1853096
    Number of edges to retest   : 52
    Number of intersected edges : 40910

Introducing baffles to block off problem cells
----------------------------------------------

markFacesOnProblemCells : marked 0 additional internal faces to be converted into baffles.
Analyzed problem cells in = 0.7 s


Introducing baffles to delete problem cells.

Created baffles in = 0.03 s


After introducing baffles : cells:594711  faces:1853096  points:664000  unbalance:0.0915924
Cells per refinement level:
    0	35297
    1	36680
    2	103924
    3	280378
    4	138432

Remove unreachable sections of mesh
-----------------------------------

Merged free-standing baffles in = 0.06 s


dupNonManifoldPoints : Found : 0 non-manifold points (out of 676366)
Detected unsplittable baffles : 0

Merge refined boundary faces
----------------------------

Merging 0 sets of faces.

No faces merged ...

Merging all points on surface that
- are used by only two boundary faces and
- make an angle with a cosine of more than 0.707107.

No straight edges simplified and no points removed ...

Doing final balancing
---------------------

Found 0 zoned faces to keep together.
Found 0 separated coupled faces to keep together.
Refined mesh : cells:594711  faces:1853096  points:664000  unbalance:0.00769954
Cells per refinement level:
    0	35297
    1	36680
    2	103924
    3	280378
    4	138432
Writing mesh to time constant
Wrote mesh in = 0.08 s.
Mesh refined in = 18.24 s.

Morphing phase
--------------

Duplicating 0 points on faceZones of type boundary
Snapping to features in 10 iterations ...
Constructing mesh displacer ...
Using mesh parameters 
{
    maxNonOrtho     65;
    maxBoundarySkewness 20;
    maxInternalSkewness 4;
    maxConcave      80;
    minVol          1e-13;
    minTetQuality   1e-15;
    minArea         -1;
    minTwist        0.02;
    minDeterminant  0.001;
    minFaceWeight   0.02;
    minVolRatio     0.01;
    minTriangleTwist -1;
    minEdgeLength   -1;
    nSmoothScale    4;
    errorReduction  0.75;
}


Checking initial mesh ...
Checking faces in error :
    non-orthogonality > 65  degrees                        : 0
    faces with face pyramid volume < 1e-13                 : 0
    faces with face-decomposition tet quality < 1e-15      : 0
    faces with concavity > 80  degrees                     : 0
    faces with skewness > 4   (internal) or 20  (boundary) : 0
    faces with interpolation weights (0..1)  < 0.02        : 0
    faces with volume ratio of neighbour cells < 0.01      : 0
    faces with face twist < 0.02                           : 0
    faces on cells with determinant < 0.001                : 0
Detected 0 illegal faces (concave, zero area or negative cell pyramid volume)
Checked initial mesh in = 2.54 s


Smoothing patch points ...
Smoothing iteration 0
Found 0 non-manifold point(s).

Scaling iteration 0
Moving mesh using displacement scaling : min:1  max:1
Checking faces in error :
    non-orthogonality > 65  degrees                        : 0
    faces with face pyramid volume < 1e-13                 : 0
    faces with face-decomposition tet quality < 1e-15      : 0
    faces with concavity > 80  degrees                     : 0
    faces with skewness > 4   (internal) or 20  (boundary) : 0
    faces with interpolation weights (0..1)  < 0.02        : 0
    faces with volume ratio of neighbour cells < 0.01      : 0
    faces with face twist < 0.02                           : 0
    faces on cells with determinant < 0.001                : 0
Successfully moved mesh

Smoothing iteration 1
Found 0 non-manifold point(s).

Scaling iteration 0
Moving mesh using displacement scaling : min:1  max:1
Checking faces in error :
    non-orthogonality > 65  degrees                        : 0
    faces with face pyramid volume < 1e-13                 : 0
    faces with face-decomposition tet quality < 1e-15      : 0
    faces with concavity > 80  degrees                     : 0
    faces with skewness > 4   (internal) or 20  (boundary) : 0
    faces with interpolation weights (0..1)  < 0.02        : 0
    faces with volume ratio of neighbour cells < 0.01      : 0
    faces with face twist < 0.02                           : 0
    faces on cells with determinant < 0.001                : 0
Successfully moved mesh

Smoothing iteration 2
Found 0 non-manifold point(s).

Scaling iteration 0
Moving mesh using displacement scaling : min:1  max:1
Checking faces in error :
    non-orthogonality > 65  degrees                        : 0
    faces with face pyramid volume < 1e-13                 : 0
    faces with face-decomposition tet quality < 1e-15      : 0
    faces with concavity > 80  degrees                     : 0
    faces with skewness > 4   (internal) or 20  (boundary) : 0
    faces with interpolation weights (0..1)  < 0.02        : 0
    faces with volume ratio of neighbour cells < 0.01      : 0
    faces with face twist < 0.02                           : 0
    faces on cells with determinant < 0.001                : 0
Successfully moved mesh

Patch points smoothed in = 0.93 s



Morph iteration 0
-----------------
Calculating patchDisplacement as distance to nearest surface point ...
    non-zone points : attract to nearest of all non-zone surfaces
    zone points     : attract to zone surface only

Wanted displacement : average:0.00027387 min:1.63523e-07 max:0.00146112
Calculated surface displacement in = 0 s


Detecting near surfaces ...
Overriding nearest with intersection of close gaps at 0 out of 41514 points.
Overriding displacement on features :
   implicit features    : false
   explicit features    : true
   multi-patch features : false

Detected 0 baffle edges out of 82478 edges.
Baffle points     : 0 of which attracted to :
    feature point : 0
    feature edge  : 0
    rest          : 0

Initially selected 1459 mesh points out of 41514 for reverse attraction.
Selected 4325 mesh points out of 41514 for reverse attraction.
Stringing feature edges : changed 68 points
Stringing feature edges : changed 0 points
Attraction:
    linear   : max:(0.00146112 1.61981e-09 -4.40404e-06) avg:(1.29167e-05 -1.64038e-05 -3.97918e-05)
    feature  : max:(0.00123943 -0.000587463 0.00139384) avg:(1.17646e-06 -2.16901e-06 -1.09867e-06)
Feature analysis : total master points :40968 of which attracted to :
    feature point   : 11
    feature edge    : 1244
    nearest surface : 0
    rest            : 39713

--> FOAM Warning : Displacement (-7.40201e-19 3.96829e-06 -5.12271e-05) at mesh point 44 coord (0.0768836 0.051351 0.000184729) points through the surrounding patch faces
Smoothing displacement ...
Iteration 0
Iteration 10
Iteration 20
Displacement smoothed in = 0.5 s


Moving mesh ...

Iteration 0
Moving mesh using displacement scaling : min:1  max:1
Checking faces in error :
    non-orthogonality > 65  degrees                        : 0
    faces with face pyramid volume < 1e-13                 : 0
    faces with face-decomposition tet quality < 1e-15      : 0
    faces with concavity > 80  degrees                     : 0
    faces with skewness > 4   (internal) or 20  (boundary) : 0
    faces with interpolation weights (0..1)  < 0.02        : 0
    faces with volume ratio of neighbour cells < 0.01      : 0
    faces with face twist < 0.02                           : 0
    faces on cells with determinant < 0.001                : 0
Successfully moved mesh
Moved mesh in = 0.3 s



Morph iteration 1
-----------------
Calculating patchDisplacement as distance to nearest surface point ...
    non-zone points : attract to nearest of all non-zone surfaces
    zone points     : attract to zone surface only

Wanted displacement : average:0.000250331 min:1.25048e-07 max:0.00143207
Calculated surface displacement in = 0.01 s


Detecting near surfaces ...
Overriding nearest with intersection of close gaps at 0 out of 41514 points.
Overriding displacement on features :
   implicit features    : false
   explicit features    : true
   multi-patch features : false

Detected 0 baffle edges out of 82478 edges.
Baffle points     : 0 of which attracted to :
    feature point : 0
    feature edge  : 0
    rest          : 0

Initially selected 1459 mesh points out of 41514 for reverse attraction.
Selected 4326 mesh points out of 41514 for reverse attraction.
Stringing feature edges : changed 66 points
Stringing feature edges : changed 0 points
Attraction:
    linear   : max:(0.00143206 1.5876e-09 -4.31646e-06) avg:(1.16399e-05 -1.48638e-05 -3.56393e-05)
    feature  : max:(0.00122704 -0.000528717 0.0013799) avg:(1.142e-06 -2.08708e-06 -8.59789e-07)
Feature analysis : total master points :40968 of which attracted to :
    feature point   : 11
    feature edge    : 1244
    nearest surface : 0
    rest            : 39713

--> FOAM Warning : Displacement (-1.3751e-18 1.49092e-05 -8.61956e-05) at mesh point 44 coord (0.0768836 0.051355 0.000133502) points through the surrounding patch faces
Smoothing displacement ...
Iteration 0
Iteration 10
Iteration 20
Displacement smoothed in = 0.49 s


Moving mesh ...

Iteration 0
Moving mesh using displacement scaling : min:1  max:1
Checking faces in error :
    non-orthogonality > 65  degrees                        : 0
    faces with face pyramid volume < 1e-13                 : 0
    faces with face-decomposition tet quality < 1e-15      : 0
    faces with concavity > 80  degrees                     : 0
    faces with skewness > 4   (internal) or 20  (boundary) : 0
    faces with interpolation weights (0..1)  < 0.02        : 0
    faces with volume ratio of neighbour cells < 0.01      : 0
    faces with face twist < 0.02                           : 0
    faces on cells with determinant < 0.001                : 0
Successfully moved mesh
Moved mesh in = 0.28 s



Morph iteration 2
-----------------
Calculating patchDisplacement as distance to nearest surface point ...
    non-zone points : attract to nearest of all non-zone surfaces
    zone points     : attract to zone surface only

Wanted displacement : average:0.000207886 min:1.50972e-08 max:0.00136666
Calculated surface displacement in = 0.02 s


Detecting near surfaces ...
Overriding nearest with intersection of close gaps at 0 out of 41514 points.
Overriding displacement on features :
   implicit features    : false
   explicit features    : true
   multi-patch features : false

Detected 0 baffle edges out of 82478 edges.
Baffle points     : 0 of which attracted to :
    feature point : 0
    feature edge  : 0
    rest          : 0

Initially selected 1458 mesh points out of 41514 for reverse attraction.
Selected 4315 mesh points out of 41514 for reverse attraction.
Stringing feature edges : changed 58 points
Stringing feature edges : changed 0 points
Attraction:
    linear   : max:(0 0.00136666 0) avg:(9.28999e-06 -1.20214e-05 -2.82045e-05)
    feature  : max:(0.00117796 -0.000422973 0.0013247) avg:(1.00513e-06 -1.90077e-06 -5.63558e-07)
Feature analysis : total master points :40968 of which attracted to :
    feature point   : 11
    feature edge    : 1245
    nearest surface : 0
    rest            : 39712

--> FOAM Warning : Displacement (1.49645e-19 3.14364e-05 -8.77784e-05) at mesh point 44 coord (0.0768836 0.0513699 4.7306e-05) points through the surrounding patch faces
Smoothing displacement ...
Iteration 0
Iteration 10
Iteration 20
Displacement smoothed in = 0.49 s


Moving mesh ...

Iteration 0
Moving mesh using displacement scaling : min:1  max:1
Checking faces in error :
    non-orthogonality > 65  degrees                        : 0
    faces with face pyramid volume < 1e-13                 : 0
    faces with face-decomposition tet quality < 1e-15      : 0
    faces with concavity > 80  degrees                     : 0
    faces with skewness > 4   (internal) or 20  (boundary) : 0
    faces with interpolation weights (0..1)  < 0.02        : 0
    faces with volume ratio of neighbour cells < 0.01      : 0
    faces with face twist < 0.02                           : 0
    faces on cells with determinant < 0.001                : 0
Successfully moved mesh
Moved mesh in = 0.27 s



Morph iteration 3
-----------------
Calculating patchDisplacement as distance to nearest surface point ...
    non-zone points : attract to nearest of all non-zone surfaces
    zone points     : attract to zone surface only

Wanted displacement : average:0.000155771 min:9.29095e-08 max:0.00129146
Calculated surface displacement in = 0.01 s


Detecting near surfaces ...
Overriding nearest with intersection of close gaps at 0 out of 41514 points.
Overriding displacement on features :
   implicit features    : false
   explicit features    : true
   multi-patch features : false

Detected 0 baffle edges out of 82478 edges.
Baffle points     : 0 of which attracted to :
    feature point : 0
    feature edge  : 0
    rest          : 0

Initially selected 1456 mesh points out of 41514 for reverse attraction.
Selected 4311 mesh points out of 41514 for reverse attraction.
Stringing feature edges : changed 54 points
Stringing feature edges : changed 0 points
Attraction:
    linear   : max:(0.00129145 0 -3.90782e-06) avg:(6.53457e-06 -8.5354e-06 -1.93958e-05)
    feature  : max:(0.00107194 -0.000296081 0.00120548) avg:(8.35068e-07 -1.59743e-06 -1.83987e-07)
Feature analysis : total master points :40968 of which attracted to :
    feature point   : 11
    feature edge    : 1245
    nearest surface : 0
    rest            : 39712

--> FOAM Warning : Displacement (-1.78682e-18 5.12654e-05 -5.27153e-05) at mesh point 44 coord (0.0768836 0.0514013 -4.04724e-05) points through the surrounding patch faces
Smoothing displacement ...
Iteration 0
Iteration 10
Iteration 20
Displacement smoothed in = 0.48 s


Moving mesh ...

Iteration 0
Moving mesh using displacement scaling : min:1  max:1
Checking faces in error :
    non-orthogonality > 65  degrees                        : 0
    faces with face pyramid volume < 1e-13                 : 0
    faces with face-decomposition tet quality < 1e-15      : 0
    faces with concavity > 80  degrees                     : 0
    faces with skewness > 4   (internal) or 20  (boundary) : 0
    faces with interpolation weights (0..1)  < 0.02        : 0
    faces with volume ratio of neighbour cells < 0.01      : 0
    faces with face twist < 0.02                           : 0
    faces on cells with determinant < 0.001                : 0
Successfully moved mesh
Moved mesh in = 0.26 s



Morph iteration 4
-----------------
Calculating patchDisplacement as distance to nearest surface point ...
    non-zone points : attract to nearest of all non-zone surfaces
    zone points     : attract to zone surface only

Wanted displacement : average:0.000104157 min:1.23256e-09 max:0.00109157
Calculated surface displacement in = 0.01 s


Detecting near surfaces ...
Overriding nearest with intersection of close gaps at 0 out of 41514 points.
Overriding displacement on features :
   implicit features    : false
   explicit features    : true
   multi-patch features : false

Detected 0 baffle edges out of 82478 edges.
Baffle points     : 0 of which attracted to :
    feature point : 0
    feature edge  : 0
    rest          : 0

Initially selected 1444 mesh points out of 41514 for reverse attraction.
Selected 4287 mesh points out of 41514 for reverse attraction.
Stringing feature edges : changed 44 points
Stringing feature edges : changed 0 points
Attraction:
    linear   : max:(0.00109156 0 -3.30297e-06) avg:(3.98598e-06 -5.12115e-06 -1.14588e-05)
    feature  : max:(0.00090043 -0.000177649 0.0010126) avg:(5.83308e-07 -1.23934e-06 1.85481e-07)
Feature analysis : total master points :40968 of which attracted to :
    feature point   : 7
    feature edge    : 1249
    nearest surface : 0
    rest            : 39712

--> FOAM Warning : Displacement (-3.34176e-18 6.97005e-05 1.67715e-06) at mesh point 44 coord (0.0768836 0.0514526 -9.31876e-05) points through the surrounding patch faces
Smoothing displacement ...
Iteration 0
Iteration 10
Iteration 20
Displacement smoothed in = 0.47 s


Moving mesh ...

Iteration 0
Moving mesh using displacement scaling : min:1  max:1
Checking faces in error :
    non-orthogonality > 65  degrees                        : 0
    faces with face pyramid volume < 1e-13                 : 0
    faces with face-decomposition tet quality < 1e-15      : 0
    faces with concavity > 80  degrees                     : 0
    faces with skewness > 4   (internal) or 20  (boundary) : 0
    faces with interpolation weights (0..1)  < 0.02        : 0
    faces with volume ratio of neighbour cells < 0.01      : 0
    faces with face twist < 0.02                           : 0
    faces on cells with determinant < 0.001                : 0
Successfully moved mesh
Moved mesh in = 0.27 s



Morph iteration 5
-----------------
Calculating patchDisplacement as distance to nearest surface point ...
    non-zone points : attract to nearest of all non-zone surfaces
    zone points     : attract to zone surface only

Wanted displacement : average:6.05902e-05 min:2.60556e-08 max:0.00085205
Calculated surface displacement in = 0.01 s


Detecting near surfaces ...
Overriding nearest with intersection of close gaps at 0 out of 41514 points.
Overriding displacement on features :
   implicit features    : false
   explicit features    : true
   multi-patch features : false

Detected 0 baffle edges out of 82478 edges.
Baffle points     : 0 of which attracted to :
    feature point : 0
    feature edge  : 0
    rest          : 0

Initially selected 1441 mesh points out of 41514 for reverse attraction.
Selected 4280 mesh points out of 41514 for reverse attraction.
Stringing feature edges : changed 30 points
Stringing feature edges : changed 0 points
Attraction:
    linear   : max:(0.00084861 0 7.64806e-05) avg:(2.11547e-06 -2.44394e-06 -5.80553e-06)
    feature  : max:(0.000675322 -8.88244e-05 0.000759452) avg:(3.96851e-07 -8.67554e-07 3.78098e-07)
Feature analysis : total master points :40968 of which attracted to :
    feature point   : 7
    feature edge    : 1249
    nearest surface : 0
    rest            : 39712

--> FOAM Warning : Displacement (-3.33067e-18 0.000191684 -6.98064e-05) at mesh point 223 coord (0.0768836 0.0532429 0.000116344) points through the surrounding patch faces
Smoothing displacement ...
Iteration 0
Iteration 10
Iteration 20
Displacement smoothed in = 0.45 s


Moving mesh ...

Iteration 0
Moving mesh using displacement scaling : min:1  max:1
Checking faces in error :
    non-orthogonality > 65  degrees                        : 0
    faces with face pyramid volume < 1e-13                 : 0
    faces with face-decomposition tet quality < 1e-15      : 0
    faces with concavity > 80  degrees                     : 0
    faces with skewness > 4   (internal) or 20  (boundary) : 0
    faces with interpolation weights (0..1)  < 0.02        : 0
    faces with volume ratio of neighbour cells < 0.01      : 0
    faces with face twist < 0.02                           : 0
    faces on cells with determinant < 0.001                : 0
Successfully moved mesh
Moved mesh in = 0.26 s



Morph iteration 6
-----------------
Calculating patchDisplacement as distance to nearest surface point ...
    non-zone points : attract to nearest of all non-zone surfaces
    zone points     : attract to zone surface only

Wanted displacement : average:3.3207e-05 min:5.06535e-08 max:0.000674622
Calculated surface displacement in = 0.01 s


Detecting near surfaces ...
Overriding nearest with intersection of close gaps at 2 out of 41514 points.
Overriding displacement on features :
   implicit features    : false
   explicit features    : true
   multi-patch features : false

Detected 0 baffle edges out of 82478 edges.
Baffle points     : 0 of which attracted to :
    feature point : 0
    feature edge  : 0
    rest          : 0

Initially selected 1440 mesh points out of 41514 for reverse attraction.
Selected 4278 mesh points out of 41514 for reverse attraction.
Stringing feature edges : changed 29 points
Stringing feature edges : changed 0 points
Attraction:
    linear   : max:(0.000544484 -1.249e-16 0.000398312) avg:(1.00094e-06 -7.83639e-07 -2.55457e-06)
    feature  : max:(0.00036093 -9.58696e-05 -0.000620006) avg:(2.49447e-07 -5.2472e-07 3.57602e-07)
Feature analysis : total master points :40968 of which attracted to :
    feature point   : 7
    feature edge    : 1249
    nearest surface : 0
    rest            : 39712

--> FOAM Warning : Displacement (-2.91434e-18 0.000166978 -3.25763e-05) at mesh point 223 coord (0.0768836 0.0534346 4.65376e-05) points through the surrounding patch faces
Smoothing displacement ...
Iteration 0
Iteration 10
Iteration 20
Displacement smoothed in = 0.47 s


Moving mesh ...

Iteration 0
Moving mesh using displacement scaling : min:1  max:1
Checking faces in error :
    non-orthogonality > 65  degrees                        : 0
    faces with face pyramid volume < 1e-13                 : 0
    faces with face-decomposition tet quality < 1e-15      : 2
    faces with concavity > 80  degrees                     : 0
    faces with skewness > 4   (internal) or 20  (boundary) : 0
    faces with interpolation weights (0..1)  < 0.02        : 0
    faces with volume ratio of neighbour cells < 0.01      : 0
    faces with face twist < 0.02                           : 0
    faces on cells with determinant < 0.001                : 0

Iteration 1
Moving mesh using displacement scaling : min:0.75  max:1
Checking faces in error :
    non-orthogonality > 65  degrees                        : 0
    faces with face pyramid volume < 1e-13                 : 0
    faces with face-decomposition tet quality < 1e-15      : 0
    faces with concavity > 80  degrees                     : 0
    faces with skewness > 4   (internal) or 20  (boundary) : 0
    faces with interpolation weights (0..1)  < 0.02        : 0
    faces with volume ratio of neighbour cells < 0.01      : 0
    faces with face twist < 0.02                           : 0
    faces on cells with determinant < 0.001                : 0
Successfully moved mesh
Moved mesh in = 0.38 s



Morph iteration 7
-----------------
Calculating patchDisplacement as distance to nearest surface point ...
    non-zone points : attract to nearest of all non-zone surfaces
    zone points     : attract to zone surface only

Wanted displacement : average:1.74726e-05 min:1.36354e-09 max:0.000514341
Calculated surface displacement in = 0.01 s


Detecting near surfaces ...
Overriding nearest with intersection of close gaps at 10 out of 41514 points.
Overriding displacement on features :
   implicit features    : false
   explicit features    : true
   multi-patch features : false

Detected 0 baffle edges out of 82478 edges.
Baffle points     : 0 of which attracted to :
    feature point : 0
    feature edge  : 0
    rest          : 0

Initially selected 1440 mesh points out of 41514 for reverse attraction.
Selected 4279 mesh points out of 41514 for reverse attraction.
Stringing feature edges : changed 17 points
Stringing feature edges : changed 0 points
Attraction:
    linear   : max:(0.000415122 2.08167e-17 0.000303678) avg:(4.65768e-07 -3.21457e-08 -1.05803e-06)
    feature  : max:(0.000457546 -7.23815e-05 -0.000486044) avg:(1.42352e-07 -2.58348e-07 2.63053e-07)
Feature analysis : total master points :40968 of which attracted to :
    feature point   : 7
    feature edge    : 1249
    nearest surface : 0
    rest            : 39712

--> FOAM Warning : Displacement (-2.22045e-18 0.000111228 -1.1169e-05) at mesh point 223 coord (0.0768836 0.0536016 1.39613e-05) points through the surrounding patch faces
Smoothing displacement ...
Iteration 0
Iteration 10
Iteration 20
Displacement smoothed in = 0.51 s


Moving mesh ...

Iteration 0
Moving mesh using displacement scaling : min:1  max:1
Checking faces in error :
    non-orthogonality > 65  degrees                        : 0
    faces with face pyramid volume < 1e-13                 : 0
    faces with face-decomposition tet quality < 1e-15      : 5
    faces with concavity > 80  degrees                     : 0
    faces with skewness > 4   (internal) or 20  (boundary) : 0
    faces with interpolation weights (0..1)  < 0.02        : 0
    faces with volume ratio of neighbour cells < 0.01      : 0
    faces with face twist < 0.02                           : 0
    faces on cells with determinant < 0.001                : 0

Iteration 1
Moving mesh using displacement scaling : min:0.75  max:1
Checking faces in error :
    non-orthogonality > 65  degrees                        : 0
    faces with face pyramid volume < 1e-13                 : 0
    faces with face-decomposition tet quality < 1e-15      : 4
    faces with concavity > 80  degrees                     : 0
    faces with skewness > 4   (internal) or 20  (boundary) : 0
    faces with interpolation weights (0..1)  < 0.02        : 0
    faces with volume ratio of neighbour cells < 0.01      : 0
    faces with face twist < 0.02                           : 0
    faces on cells with determinant < 0.001                : 0

Iteration 2
Moving mesh using displacement scaling : min:0.5625  max:1
Checking faces in error :
    non-orthogonality > 65  degrees                        : 0
    faces with face pyramid volume < 1e-13                 : 0
    faces with face-decomposition tet quality < 1e-15      : 4
    faces with concavity > 80  degrees                     : 0
    faces with skewness > 4   (internal) or 20  (boundary) : 0
    faces with interpolation weights (0..1)  < 0.02        : 0
    faces with volume ratio of neighbour cells < 0.01      : 0
    faces with face twist < 0.02                           : 0
    faces on cells with determinant < 0.001                : 0

Iteration 3
Moving mesh using displacement scaling : min:0.421875  max:1
Checking faces in error :
    non-orthogonality > 65  degrees                        : 0
    faces with face pyramid volume < 1e-13                 : 0
    faces with face-decomposition tet quality < 1e-15      : 4
    faces with concavity > 80  degrees                     : 0
    faces with skewness > 4   (internal) or 20  (boundary) : 0
    faces with interpolation weights (0..1)  < 0.02        : 0
    faces with volume ratio of neighbour cells < 0.01      : 0
    faces with face twist < 0.02                           : 0
    faces on cells with determinant < 0.001                : 0

Iteration 4
Moving mesh using displacement scaling : min:0.316406  max:1
Checking faces in error :
    non-orthogonality > 65  degrees                        : 0
    faces with face pyramid volume < 1e-13                 : 0
    faces with face-decomposition tet quality < 1e-15      : 2
    faces with concavity > 80  degrees                     : 0
    faces with skewness > 4   (internal) or 20  (boundary) : 0
    faces with interpolation weights (0..1)  < 0.02        : 0
    faces with volume ratio of neighbour cells < 0.01      : 0
    faces with face twist < 0.02                           : 0
    faces on cells with determinant < 0.001                : 0

Iteration 5
Displacement scaling for error reduction set to 0.
Moving mesh using displacement scaling : min:0.237305  max:1
Checking faces in error :
    non-orthogonality > 65  degrees                        : 0
    faces with face pyramid volume < 1e-13                 : 0
    faces with face-decomposition tet quality < 1e-15      : 0
    faces with concavity > 80  degrees                     : 0
    faces with skewness > 4   (internal) or 20  (boundary) : 0
    faces with interpolation weights (0..1)  < 0.02        : 0
    faces with volume ratio of neighbour cells < 0.01      : 0
    faces with face twist < 0.02                           : 0
    faces on cells with determinant < 0.001                : 0
Successfully moved mesh
Moved mesh in = 0.82 s



Morph iteration 8
-----------------
Calculating patchDisplacement as distance to nearest surface point ...
    non-zone points : attract to nearest of all non-zone surfaces
    zone points     : attract to zone surface only

Wanted displacement : average:8.81401e-06 min:8.29575e-11 max:0.000398119
Calculated surface displacement in = 0.01 s


Detecting near surfaces ...
Overriding nearest with intersection of close gaps at 24 out of 41514 points.
Overriding displacement on features :
   implicit features    : false
   explicit features    : true
   multi-patch features : false

Detected 0 baffle edges out of 82478 edges.
Baffle points     : 0 of which attracted to :
    feature point : 0
    feature edge  : 0
    rest          : 0

Initially selected 1440 mesh points out of 41514 for reverse attraction.
Selected 4279 mesh points out of 41514 for reverse attraction.
Stringing feature edges : changed 6 points
Stringing feature edges : changed 0 points
Attraction:
    linear   : max:(0.000289444 0 0.000273351) avg:(2.39606e-07 1.24714e-07 -5.25613e-07)
    feature  : max:(0.000419108 -6.68851e-05 -0.000453621) avg:(8.77048e-08 -9.16612e-08 1.60864e-07)
Feature analysis : total master points :40968 of which attracted to :
    feature point   : 7
    feature edge    : 1249
    nearest surface : 0
    rest            : 39712

--> FOAM Warning : Displacement (1.13084e-17 1.88021e-05 -7.17899e-06) at mesh point 44 coord (0.0768836 0.0517153 2.58743e-05) points through the surrounding patch faces
Smoothing displacement ...
Iteration 0
Iteration 10
Iteration 20
Displacement smoothed in = 0.46 s


Moving mesh ...

Iteration 0
Moving mesh using displacement scaling : min:1  max:1
Checking faces in error :
    non-orthogonality > 65  degrees                        : 0
    faces with face pyramid volume < 1e-13                 : 0
    faces with face-decomposition tet quality < 1e-15      : 24
    faces with concavity > 80  degrees                     : 0
    faces with skewness > 4   (internal) or 20  (boundary) : 0
    faces with interpolation weights (0..1)  < 0.02        : 0
    faces with volume ratio of neighbour cells < 0.01      : 0
    faces with face twist < 0.02                           : 0
    faces on cells with determinant < 0.001                : 0

Iteration 1
Moving mesh using displacement scaling : min:0.75  max:1
Checking faces in error :
    non-orthogonality > 65  degrees                        : 0
    faces with face pyramid volume < 1e-13                 : 0
    faces with face-decomposition tet quality < 1e-15      : 9
    faces with concavity > 80  degrees                     : 0
    faces with skewness > 4   (internal) or 20  (boundary) : 0
    faces with interpolation weights (0..1)  < 0.02        : 0
    faces with volume ratio of neighbour cells < 0.01      : 0
    faces with face twist < 0.02                           : 4
    faces on cells with determinant < 0.001                : 0

Iteration 2
Moving mesh using displacement scaling : min:0.5625  max:1
Checking faces in error :
    non-orthogonality > 65  degrees                        : 0
    faces with face pyramid volume < 1e-13                 : 0
    faces with face-decomposition tet quality < 1e-15      : 6
    faces with concavity > 80  degrees                     : 0
    faces with skewness > 4   (internal) or 20  (boundary) : 0
    faces with interpolation weights (0..1)  < 0.02        : 0
    faces with volume ratio of neighbour cells < 0.01      : 0
    faces with face twist < 0.02                           : 0
    faces on cells with determinant < 0.001                : 0

Iteration 3
Moving mesh using displacement scaling : min:0.421875  max:1
Checking faces in error :
    non-orthogonality > 65  degrees                        : 0
    faces with face pyramid volume < 1e-13                 : 0
    faces with face-decomposition tet quality < 1e-15      : 4
    faces with concavity > 80  degrees                     : 0
    faces with skewness > 4   (internal) or 20  (boundary) : 0
    faces with interpolation weights (0..1)  < 0.02        : 0
    faces with volume ratio of neighbour cells < 0.01      : 0
    faces with face twist < 0.02                           : 0
    faces on cells with determinant < 0.001                : 0

Iteration 4
Moving mesh using displacement scaling : min:0.316406  max:1
Checking faces in error :
    non-orthogonality > 65  degrees                        : 0
    faces with face pyramid volume < 1e-13                 : 0
    faces with face-decomposition tet quality < 1e-15      : 4
    faces with concavity > 80  degrees                     : 0
    faces with skewness > 4   (internal) or 20  (boundary) : 0
    faces with interpolation weights (0..1)  < 0.02        : 0
    faces with volume ratio of neighbour cells < 0.01      : 0
    faces with face twist < 0.02                           : 0
    faces on cells with determinant < 0.001                : 0

Iteration 5
Displacement scaling for error reduction set to 0.
Moving mesh using displacement scaling : min:0.237305  max:1
Checking faces in error :
    non-orthogonality > 65  degrees                        : 0
    faces with face pyramid volume < 1e-13                 : 0
    faces with face-decomposition tet quality < 1e-15      : 4
    faces with concavity > 80  degrees                     : 0
    faces with skewness > 4   (internal) or 20  (boundary) : 0
    faces with interpolation weights (0..1)  < 0.02        : 0
    faces with volume ratio of neighbour cells < 0.01      : 0
    faces with face twist < 0.02                           : 0
    faces on cells with determinant < 0.001                : 0

Iteration 6
Moving mesh using displacement scaling : min:0  max:1
Checking faces in error :
    non-orthogonality > 65  degrees                        : 0
    faces with face pyramid volume < 1e-13                 : 0
    faces with face-decomposition tet quality < 1e-15      : 0
    faces with concavity > 80  degrees                     : 0
    faces with skewness > 4   (internal) or 20  (boundary) : 0
    faces with interpolation weights (0..1)  < 0.02        : 0
    faces with volume ratio of neighbour cells < 0.01      : 0
    faces with face twist < 0.02                           : 0
    faces on cells with determinant < 0.001                : 0
Successfully moved mesh
Moved mesh in = 0.98 s



Morph iteration 9
-----------------
Calculating patchDisplacement as distance to nearest surface point ...
    non-zone points : attract to nearest of all non-zone surfaces
    zone points     : attract to zone surface only

Wanted displacement : average:3.37162e-06 min:7.27213e-12 max:0.000388274
Calculated surface displacement in = 0.01 s


Detecting near surfaces ...
Overriding nearest with intersection of close gaps at 20 out of 41514 points.
Overriding displacement on features :
   implicit features    : false
   explicit features    : true
   multi-patch features : false

Detected 0 baffle edges out of 82478 edges.
Baffle points     : 0 of which attracted to :
    feature point : 0
    feature edge  : 0
    rest          : 0

Initially selected 1440 mesh points out of 41514 for reverse attraction.
Selected 4280 mesh points out of 41514 for reverse attraction.
Stringing feature edges : changed 6 points
Stringing feature edges : changed 0 points
Attraction:
    linear   : max:(0.000143216 -0.000280843 0.000226655) avg:(1.33271e-07 6.1122e-08 -1.94594e-07)
    feature  : max:(0.000419108 -6.68851e-05 -0.000453621) avg:(1.79999e-08 -1.92016e-08 7.78749e-09)
Feature analysis : total master points :40968 of which attracted to :
    feature point   : 7
    feature edge    : 1249
    nearest surface : 0
    rest            : 39712

--> FOAM Warning : Displacement (1.38778e-17 6.93889e-18 -1.86954e-05) at mesh point 44 coord (0.0768836 0.0517341 1.86954e-05) points through the surrounding patch faces
Smoothing displacement ...
Iteration 0
Iteration 10
Iteration 20
Displacement smoothed in = 0.41 s


Moving mesh ...

Iteration 0
Moving mesh using displacement scaling : min:1  max:1
Checking faces in error :
    non-orthogonality > 65  degrees                        : 0
    faces with face pyramid volume < 1e-13                 : 1
    faces with face-decomposition tet quality < 1e-15      : 33
    faces with concavity > 80  degrees                     : 0
    faces with skewness > 4   (internal) or 20  (boundary) : 0
    faces with interpolation weights (0..1)  < 0.02        : 0
    faces with volume ratio of neighbour cells < 0.01      : 0
    faces with face twist < 0.02                           : 0
    faces on cells with determinant < 0.001                : 0

Iteration 1
Moving mesh using displacement scaling : min:0.75  max:1
Checking faces in error :
    non-orthogonality > 65  degrees                        : 0
    faces with face pyramid volume < 1e-13                 : 1
    faces with face-decomposition tet quality < 1e-15      : 30
    faces with concavity > 80  degrees                     : 0
    faces with skewness > 4   (internal) or 20  (boundary) : 0
    faces with interpolation weights (0..1)  < 0.02        : 0
    faces with volume ratio of neighbour cells < 0.01      : 0
    faces with face twist < 0.02                           : 0
    faces on cells with determinant < 0.001                : 0

Iteration 2
Moving mesh using displacement scaling : min:0.5625  max:1
Checking faces in error :
    non-orthogonality > 65  degrees                        : 0
    faces with face pyramid volume < 1e-13                 : 0
    faces with face-decomposition tet quality < 1e-15      : 26
    faces with concavity > 80  degrees                     : 0
    faces with skewness > 4   (internal) or 20  (boundary) : 0
    faces with interpolation weights (0..1)  < 0.02        : 0
    faces with volume ratio of neighbour cells < 0.01      : 0
    faces with face twist < 0.02                           : 0
    faces on cells with determinant < 0.001                : 0

Iteration 3
Moving mesh using displacement scaling : min:0.421875  max:1
Checking faces in error :
    non-orthogonality > 65  degrees                        : 0
    faces with face pyramid volume < 1e-13                 : 0
    faces with face-decomposition tet quality < 1e-15      : 19
    faces with concavity > 80  degrees                     : 0
    faces with skewness > 4   (internal) or 20  (boundary) : 0
    faces with interpolation weights (0..1)  < 0.02        : 0
    faces with volume ratio of neighbour cells < 0.01      : 0
    faces with face twist < 0.02                           : 4
    faces on cells with determinant < 0.001                : 0

Iteration 4
Moving mesh using displacement scaling : min:0.316406  max:1
Checking faces in error :
    non-orthogonality > 65  degrees                        : 0
    faces with face pyramid volume < 1e-13                 : 0
    faces with face-decomposition tet quality < 1e-15      : 13
    faces with concavity > 80  degrees                     : 0
    faces with skewness > 4   (internal) or 20  (boundary) : 0
    faces with interpolation weights (0..1)  < 0.02        : 0
    faces with volume ratio of neighbour cells < 0.01      : 0
    faces with face twist < 0.02                           : 0
    faces on cells with determinant < 0.001                : 0

Iteration 5
Displacement scaling for error reduction set to 0.
Moving mesh using displacement scaling : min:0.237305  max:1
Checking faces in error :
    non-orthogonality > 65  degrees                        : 0
    faces with face pyramid volume < 1e-13                 : 0
    faces with face-decomposition tet quality < 1e-15      : 12
    faces with concavity > 80  degrees                     : 0
    faces with skewness > 4   (internal) or 20  (boundary) : 0
    faces with interpolation weights (0..1)  < 0.02        : 0
    faces with volume ratio of neighbour cells < 0.01      : 0
    faces with face twist < 0.02                           : 0
    faces on cells with determinant < 0.001                : 0

Iteration 6
Moving mesh using displacement scaling : min:0  max:1
Checking faces in error :
    non-orthogonality > 65  degrees                        : 0
    faces with face pyramid volume < 1e-13                 : 0
    faces with face-decomposition tet quality < 1e-15      : 0
    faces with concavity > 80  degrees                     : 0
    faces with skewness > 4   (internal) or 20  (boundary) : 0
    faces with interpolation weights (0..1)  < 0.02        : 0
    faces with volume ratio of neighbour cells < 0.01      : 0
    faces with face twist < 0.02                           : 0
    faces on cells with determinant < 0.001                : 0
Successfully moved mesh
Moved mesh in = 1.01 s


Repatching faces according to nearest surface ...
Repatched 0 faces in = 0.05 s


Edge intersection testing:
    Number of edges             : 1853096
    Number of edges to retest   : 304124
    Number of intersected edges : 40863
Merging 3202 sets of faces.

Edge intersection testing:
    Number of edges             : 1849894
    Number of edges to retest   : 12875
    Number of intersected edges : 37661

Undo iteration 0
----------------
Checking faces in error :
    non-orthogonality > 65  degrees                        : 0
    faces with face pyramid volume < 1e-13                 : 0
    faces with face-decomposition tet quality < 1e-15      : 0
    faces with concavity > 80  degrees                     : 0
    faces with skewness > 4   (internal) or 20  (boundary) : 0
    faces with interpolation weights (0..1)  < 0.02        : 0
    faces with volume ratio of neighbour cells < 0.01      : 0
    faces with face twist < 0.02                           : 0
    faces on cells with determinant < 0.001                : 0

Merging all points on surface that
- are used by only two boundary faces and
- make an angle with a cosine of more than 0.866025.

Removing 3140 straight edge points ...

Edge intersection testing:
    Number of edges             : 1849894
    Number of edges to retest   : 12875
    Number of intersected edges : 37661

Undo iteration 0
----------------
Checking faces in error :
    non-orthogonality > 65  degrees                        : 0
    faces with face pyramid volume < 1e-13                 : 0
    faces with face-decomposition tet quality < 1e-15      : 0
    faces with concavity > 80  degrees                     : 0
    faces with skewness > 4   (internal) or 20  (boundary) : 0
    faces with interpolation weights (0..1)  < 0.02        : 0
    faces with volume ratio of neighbour cells < 0.01      : 0
    faces with face twist < 0.02                           : 0
    faces on cells with determinant < 0.001                : 0
Snapped mesh : cells:594711  faces:1849894  points:660865  unbalance:0.00769954
Cells per refinement level:
    0	35297
    1	36680
    2	103924
    3	280378
    4	138432
Writing mesh to time constant
Wrote mesh in = 0.07 s.
Mesh snapped in = 12.72 s.
Layer specification as
- final layer thickness ('finalLayerThickness')
- expansion ratio ('expansionRatio')

Shrinking and layer addition phase
----------------------------------

Using mesh parameters 
{
    maxNonOrtho     65;
    maxBoundarySkewness 20;
    maxInternalSkewness 4;
    maxConcave      80;
    minVol          1e-13;
    minTetQuality   1e-15;
    minArea         -1;
    minTwist        0.02;
    minDeterminant  0.001;
    minFaceWeight   0.02;
    minVolRatio     0.01;
    minTriangleTwist -1;
    minEdgeLength   -1;
    nSmoothScale    4;
    errorReduction  0.75;
}



Merging all faces of a cell
---------------------------
    - which are on the same patch
    - which make an angle < 150 degrees (cos:-0.866025)
    - as long as the resulting face doesn't become concave by more than 90 degrees
      (0=straight, 180=fully concave)

Merging 162 sets of faces.

Edge intersection testing:
    Number of edges             : 1849732
    Number of edges to retest   : 670
    Number of intersected edges : 37451

Undo iteration 0
----------------
Checking faces in error :
    non-orthogonality > 65  degrees                        : 0
    faces with face pyramid volume < 1e-13                 : 0
    faces with face-decomposition tet quality < 1e-15      : 7
    faces with concavity > 80  degrees                     : 41
    faces with skewness > 4   (internal) or 20  (boundary) : 0
    faces with interpolation weights (0..1)  < 0.02        : 0
    faces with volume ratio of neighbour cells < 0.01      : 0
    faces with face twist < 0.02                           : 0
    faces on cells with determinant < 0.001                : 0
Masters that need to be restored:48
Edge intersection testing:
    Number of edges             : 1849780
    Number of edges to retest   : 257
    Number of intersected edges : 37539


Undo iteration 1
----------------
Checking faces in error :
    non-orthogonality > 65  degrees                        : 0
    faces with face pyramid volume < 1e-13                 : 0
    faces with face-decomposition tet quality < 1e-15      : 0
    faces with concavity > 80  degrees                     : 0
    faces with skewness > 4   (internal) or 20  (boundary) : 0
    faces with interpolation weights (0..1)  < 0.02        : 0
    faces with volume ratio of neighbour cells < 0.01      : 0
    faces with face twist < 0.02                           : 0
    faces on cells with determinant < 0.001                : 0

Merging all points on surface that
- are used by only two boundary faces and
- make an angle with a cosine of more than -0.866025.

Removing 103 straight edge points ...

Edge intersection testing:
    Number of edges             : 1849780
    Number of edges to retest   : 432
    Number of intersected edges : 37537

Undo iteration 0
----------------
Checking faces in error :
    non-orthogonality > 65  degrees                        : 0
    faces with face pyramid volume < 1e-13                 : 0
    faces with face-decomposition tet quality < 1e-15      : 0
    faces with concavity > 80  degrees                     : 0
    faces with skewness > 4   (internal) or 20  (boundary) : 0
    faces with interpolation weights (0..1)  < 0.02        : 0
    faces with volume ratio of neighbour cells < 0.01      : 0
    faces with face twist < 0.02                           : 0
    faces on cells with determinant < 0.001                : 0

Checking mesh manifoldness ...
Outside of mesh is multiply connected across edges or points.
This is not a fatal error but might cause some unexpected behaviour.


Checking initial mesh ...
Checking faces in error :
    non-orthogonality > 65  degrees                        : 0
    faces with face pyramid volume < 1e-13                 : 0
    faces with face-decomposition tet quality < 1e-15      : 0
    faces with concavity > 80  degrees                     : 0
    faces with skewness > 4   (internal) or 20  (boundary) : 0
    faces with interpolation weights (0..1)  < 0.02        : 0
    faces with volume ratio of neighbour cells < 0.01      : 0
    faces with face twist < 0.02                           : 0
    faces on cells with determinant < 0.001                : 0
Detected 0 illegal faces (concave, zero area or negative cell pyramid volume)

Before layer addition : cells:594711  faces:1849780  points:660762  unbalance:0.00769954
Ideal layer addition : cells:883736  unbalance:0.180583

Duplicating 0 points on faceZones of type boundary

Handling points with inconsistent layer specification ...
dupNonManifoldPoints : Found : 0 non-manifold points (out of 673565)

Handling points with inconsistent layer specification ...

Handling non-manifold points ...

Checking patch manifoldness ...
Outside of local patch is multiply connected across edges or points at 0 points.
Set displacement to zero for all 0 non-manifold points

Handling feature edges (angle < 150) ...
Set displacement to zero for points on 0 feature edges

Handling cells with warped patch faces ...
Set displacement to zero on 12 warped faces since layer would be > 0.5 of the size of the bounding box.

patch        faces    layers avg thickness[m]
                             near-wall overall
-----        -----    ------ --------- -------
frontAndBack 4964     5      0.00426   0.0317  
lowerWall    12709    5      0.00137   0.0102  
upperWall    2482     5      0.00426   0.0317  
ahmedBody    37650    5      0.000267  0.00198 


Outer iteration : 0
-------------------

Adding in total 0 inter-processor patches to handle extrusion of non-manifold processor boundaries.
Selecting externalDisplacementMeshMover displacementMedialAxis
displacementMedialAxis : Calculating distance to Medial Axis ...
fieldSmoother : Smoothing normals ...
    Iteration 0   residual 0.0183499
displacementMedialAxis : Inserting points on patch inlet if angle to nearest layer patch > 30 degrees.
displacementMedialAxis : Inserting points on patch outlet if angle to nearest layer patch > 30 degrees.
fieldSmoother : Smoothing normals in interior ...
    Iteration 0   residual 0.0416955

Layer addition iteration 0
--------------------------

Determining displacement for added points according to pointNormal ...
Detected 0 points with point normal pointing through faces.
Reset displacement at 0 points to average of surrounding points.

displacementMedialAxis : Smoothing using Medial Axis ...
displacementMedialAxis : Reducing layer thickness at 7818 nodes where thickness to medial axis distance is large 
displacementMedialAxis : Removing isolated regions ...
- if partially extruded faces make angle < 75
- if exclusively surrounded by non-extruded faces
displacementMedialAxis : Number of isolated points extrusion stopped : 22
fieldSmoother : Smoothing field ...
    Iteration 0   residual 6.47508e-05
displacementMedialAxis : Moving mesh ...
displacementMedialAxis : Iteration 0
Moving mesh using displacement scaling : min:1  max:1
Checking faces in error :
    non-orthogonality > 65  degrees                        : 173
    faces with face pyramid volume < 1e-13                 : 69
    faces with face-decomposition tet quality < 1e-15      : 51
    faces with concavity > 80  degrees                     : 0
    faces with skewness > 4   (internal) or 20  (boundary) : 0
    faces with interpolation weights (0..1)  < 0.02        : 0
    faces with volume ratio of neighbour cells < 0.01      : 1
    faces with face twist < 0.02                           : 4
    faces on cells with determinant < 0.001                : 0
displacementMedialAxis : Iteration 1
Moving mesh using displacement scaling : min:0.75  max:1
Checking faces in error :
    non-orthogonality > 65  degrees                        : 0
    faces with face pyramid volume < 1e-13                 : 0
    faces with face-decomposition tet quality < 1e-15      : 0
    faces with concavity > 80  degrees                     : 0
    faces with skewness > 4   (internal) or 20  (boundary) : 0
    faces with interpolation weights (0..1)  < 0.02        : 0
    faces with volume ratio of neighbour cells < 0.01      : 0
    faces with face twist < 0.02                           : 0
    faces on cells with determinant < 0.001                : 0
displacementMedialAxis : Successfully moved mesh
displacementMedialAxis : Finished moving mesh ...
truncateDisplacement : Unextruded 0 faces due to non-consecutive vertices being extruded.
truncateDisplacement : Unextruded 0 faces due to stringed edges with inconsistent extrusion.

Setting up information for layer truncation ...
Detected 0 baffles across faceZones of type internal


Checking mesh with layer ...
Checking faces in error :
    non-orthogonality > 65  degrees                        : 24
    faces with face pyramid volume < 1e-13                 : 0
    faces with face-decomposition tet quality < 1e-15      : 150
    faces with concavity > 80  degrees                     : 0
    faces with skewness > 4   (internal) or 20  (boundary) : 0
    faces with interpolation weights (0..1)  < 0.02        : 0
    faces with volume ratio of neighbour cells < 0.01      : 0
    faces with face twist < 0.02                           : 0
    faces on cells with determinant < 0.001                : 0
Detected 174 illegal faces (concave, zero area or negative cell pyramid volume)
Extruding 57688 out of 57805 faces (99.7976%). Removed extrusion at 85 faces.
Added 286719 out of 289025 cells (99.2021%).


Layer addition iteration 1
--------------------------

Determining displacement for added points according to pointNormal ...
Detected 0 points with point normal pointing through faces.
Reset displacement at 0 points to average of surrounding points.

displacementMedialAxis : Smoothing using Medial Axis ...
displacementMedialAxis : Reducing layer thickness at 7793 nodes where thickness to medial axis distance is large 
displacementMedialAxis : Removing isolated regions ...
- if partially extruded faces make angle < 75
- if exclusively surrounded by non-extruded faces
displacementMedialAxis : Number of isolated points extrusion stopped : 112
fieldSmoother : Smoothing field ...
    Iteration 0   residual 6.86979e-05
displacementMedialAxis : Moving mesh ...
displacementMedialAxis : Iteration 0
Moving mesh using displacement scaling : min:1  max:1
Checking faces in error :
    non-orthogonality > 65  degrees                        : 98
    faces with face pyramid volume < 1e-13                 : 33
    faces with face-decomposition tet quality < 1e-15      : 41
    faces with concavity > 80  degrees                     : 0
    faces with skewness > 4   (internal) or 20  (boundary) : 0
    faces with interpolation weights (0..1)  < 0.02        : 1
    faces with volume ratio of neighbour cells < 0.01      : 0
    faces with face twist < 0.02                           : 1
    faces on cells with determinant < 0.001                : 0
displacementMedialAxis : Iteration 1
Moving mesh using displacement scaling : min:0.75  max:1
Checking faces in error :
    non-orthogonality > 65  degrees                        : 0
    faces with face pyramid volume < 1e-13                 : 0
    faces with face-decomposition tet quality < 1e-15      : 8
    faces with concavity > 80  degrees                     : 0
    faces with skewness > 4   (internal) or 20  (boundary) : 0
    faces with interpolation weights (0..1)  < 0.02        : 0
    faces with volume ratio of neighbour cells < 0.01      : 0
    faces with face twist < 0.02                           : 0
    faces on cells with determinant < 0.001                : 0
displacementMedialAxis : Iteration 2
Moving mesh using displacement scaling : min:0.5625  max:1
Checking faces in error :
    non-orthogonality > 65  degrees                        : 0
    faces with face pyramid volume < 1e-13                 : 0
    faces with face-decomposition tet quality < 1e-15      : 8
    faces with concavity > 80  degrees                     : 0
    faces with skewness > 4   (internal) or 20  (boundary) : 0
    faces with interpolation weights (0..1)  < 0.02        : 0
    faces with volume ratio of neighbour cells < 0.01      : 0
    faces with face twist < 0.02                           : 0
    faces on cells with determinant < 0.001                : 0
displacementMedialAxis : Iteration 3
displacementMedialAxis : Displacement scaling for error reduction set to 0.
Moving mesh using displacement scaling : min:0.421875  max:1
Checking faces in error :
    non-orthogonality > 65  degrees                        : 0
    faces with face pyramid volume < 1e-13                 : 0
    faces with face-decomposition tet quality < 1e-15      : 8
    faces with concavity > 80  degrees                     : 0
    faces with skewness > 4   (internal) or 20  (boundary) : 0
    faces with interpolation weights (0..1)  < 0.02        : 0
    faces with volume ratio of neighbour cells < 0.01      : 0
    faces with face twist < 0.02                           : 0
    faces on cells with determinant < 0.001                : 0
displacementMedialAxis : Iteration 4
Moving mesh using displacement scaling : min:0  max:1
Checking faces in error :
    non-orthogonality > 65  degrees                        : 0
    faces with face pyramid volume < 1e-13                 : 0
    faces with face-decomposition tet quality < 1e-15      : 0
    faces with concavity > 80  degrees                     : 0
    faces with skewness > 4   (internal) or 20  (boundary) : 0
    faces with interpolation weights (0..1)  < 0.02        : 0
    faces with volume ratio of neighbour cells < 0.01      : 0
    faces with face twist < 0.02                           : 0
    faces on cells with determinant < 0.001                : 0
displacementMedialAxis : Successfully moved mesh
displacementMedialAxis : Finished moving mesh ...
truncateDisplacement : Unextruded 0 faces due to non-consecutive vertices being extruded.
truncateDisplacement : Unextruded 0 faces due to stringed edges with inconsistent extrusion.

Setting up information for layer truncation ...
Detected 0 baffles across faceZones of type internal


Checking mesh with layer ...
Checking faces in error :
    non-orthogonality > 65  degrees                        : 0
    faces with face pyramid volume < 1e-13                 : 0
    faces with face-decomposition tet quality < 1e-15      : 2
    faces with concavity > 80  degrees                     : 0
    faces with skewness > 4   (internal) or 20  (boundary) : 0
    faces with interpolation weights (0..1)  < 0.02        : 0
    faces with volume ratio of neighbour cells < 0.01      : 0
    faces with face twist < 0.02                           : 0
    faces on cells with determinant < 0.001                : 0
Detected 2 illegal faces (concave, zero area or negative cell pyramid volume)
Extruding 57675 out of 57805 faces (99.7751%). Removed extrusion at 2 faces.
Added 279641 out of 289025 cells (96.7532%).


Layer addition iteration 2
--------------------------

Determining displacement for added points according to pointNormal ...
Detected 0 points with point normal pointing through faces.
Reset displacement at 0 points to average of surrounding points.

displacementMedialAxis : Smoothing using Medial Axis ...
displacementMedialAxis : Reducing layer thickness at 7777 nodes where thickness to medial axis distance is large 
displacementMedialAxis : Removing isolated regions ...
- if partially extruded faces make angle < 75
- if exclusively surrounded by non-extruded faces
displacementMedialAxis : Number of isolated points extrusion stopped : 128
fieldSmoother : Smoothing field ...
    Iteration 0   residual 7.0316e-05
displacementMedialAxis : Moving mesh ...
displacementMedialAxis : Iteration 0
Moving mesh using displacement scaling : min:1  max:1
Checking faces in error :
    non-orthogonality > 65  degrees                        : 44
    faces with face pyramid volume < 1e-13                 : 15
    faces with face-decomposition tet quality < 1e-15      : 14
    faces with concavity > 80  degrees                     : 0
    faces with skewness > 4   (internal) or 20  (boundary) : 0
    faces with interpolation weights (0..1)  < 0.02        : 0
    faces with volume ratio of neighbour cells < 0.01      : 0
    faces with face twist < 0.02                           : 0
    faces on cells with determinant < 0.001                : 0
displacementMedialAxis : Iteration 1
Moving mesh using displacement scaling : min:0.75  max:1
Checking faces in error :
    non-orthogonality > 65  degrees                        : 0
    faces with face pyramid volume < 1e-13                 : 0
    faces with face-decomposition tet quality < 1e-15      : 0
    faces with concavity > 80  degrees                     : 0
    faces with skewness > 4   (internal) or 20  (boundary) : 0
    faces with interpolation weights (0..1)  < 0.02        : 0
    faces with volume ratio of neighbour cells < 0.01      : 0
    faces with face twist < 0.02                           : 0
    faces on cells with determinant < 0.001                : 0
displacementMedialAxis : Successfully moved mesh
displacementMedialAxis : Finished moving mesh ...
truncateDisplacement : Unextruded 0 faces due to non-consecutive vertices being extruded.
truncateDisplacement : Unextruded 0 faces due to stringed edges with inconsistent extrusion.

Setting up information for layer truncation ...
Detected 0 baffles across faceZones of type internal


Checking mesh with layer ...
Checking faces in error :
    non-orthogonality > 65  degrees                        : 0
    faces with face pyramid volume < 1e-13                 : 0
    faces with face-decomposition tet quality < 1e-15      : 2
    faces with concavity > 80  degrees                     : 0
    faces with skewness > 4   (internal) or 20  (boundary) : 0
    faces with interpolation weights (0..1)  < 0.02        : 0
    faces with volume ratio of neighbour cells < 0.01      : 0
    faces with face twist < 0.02                           : 0
    faces on cells with determinant < 0.001                : 0
Detected 2 illegal faces (concave, zero area or negative cell pyramid volume)
Extruding 57673 out of 57805 faces (99.7716%). Removed extrusion at 2 faces.
Added 277744 out of 289025 cells (96.0969%).


Layer addition iteration 3
--------------------------

Determining displacement for added points according to pointNormal ...
Detected 0 points with point normal pointing through faces.
Reset displacement at 0 points to average of surrounding points.

displacementMedialAxis : Smoothing using Medial Axis ...
displacementMedialAxis : Reducing layer thickness at 7756 nodes where thickness to medial axis distance is large 
displacementMedialAxis : Removing isolated regions ...
- if partially extruded faces make angle < 75
- if exclusively surrounded by non-extruded faces
displacementMedialAxis : Number of isolated points extrusion stopped : 28
fieldSmoother : Smoothing field ...
    Iteration 0   residual 7.08638e-05
displacementMedialAxis : Moving mesh ...
displacementMedialAxis : Iteration 0
Moving mesh using displacement scaling : min:1  max:1
Checking faces in error :
    non-orthogonality > 65  degrees                        : 36
    faces with face pyramid volume < 1e-13                 : 9
    faces with face-decomposition tet quality < 1e-15      : 10
    faces with concavity > 80  degrees                     : 0
    faces with skewness > 4   (internal) or 20  (boundary) : 0
    faces with interpolation weights (0..1)  < 0.02        : 0
    faces with volume ratio of neighbour cells < 0.01      : 0
    faces with face twist < 0.02                           : 0
    faces on cells with determinant < 0.001                : 0
displacementMedialAxis : Iteration 1
Moving mesh using displacement scaling : min:0.75  max:1
Checking faces in error :
    non-orthogonality > 65  degrees                        : 0
    faces with face pyramid volume < 1e-13                 : 0
    faces with face-decomposition tet quality < 1e-15      : 0
    faces with concavity > 80  degrees                     : 0
    faces with skewness > 4   (internal) or 20  (boundary) : 0
    faces with interpolation weights (0..1)  < 0.02        : 0
    faces with volume ratio of neighbour cells < 0.01      : 0
    faces with face twist < 0.02                           : 0
    faces on cells with determinant < 0.001                : 0
displacementMedialAxis : Successfully moved mesh
displacementMedialAxis : Finished moving mesh ...
truncateDisplacement : Unextruded 0 faces due to non-consecutive vertices being extruded.
truncateDisplacement : Unextruded 0 faces due to stringed edges with inconsistent extrusion.

Setting up information for layer truncation ...
Detected 0 baffles across faceZones of type internal


Checking mesh with layer ...
Checking faces in error :
    non-orthogonality > 65  degrees                        : 0
    faces with face pyramid volume < 1e-13                 : 0
    faces with face-decomposition tet quality < 1e-15      : 0
    faces with concavity > 80  degrees                     : 0
    faces with skewness > 4   (internal) or 20  (boundary) : 0
    faces with interpolation weights (0..1)  < 0.02        : 0
    faces with volume ratio of neighbour cells < 0.01      : 0
    faces with face twist < 0.02                           : 0
    faces on cells with determinant < 0.001                : 0
Detected 0 illegal faces (concave, zero area or negative cell pyramid volume)
Extruding 57673 out of 57805 faces (99.7716%). Removed extrusion at 0 faces.
Added 276945 out of 289025 cells (95.8204%).
Edge intersection testing:
    Number of edges             : 2684273
    Number of edges to retest   : 0
    Number of intersected edges : 214223
Mesh with layers : cells:871656  faces:2684273  points:941300  unbalance:0.172366

patch        faces        layers        overall thickness
                      target   mesh     [m]       [%]
-----        -----    -----    ----     ---       ---
frontAndBack 4964     5        4.92     0.0239    75.4    
lowerWall    12709    5        4.96     0.00806   83.2    
upperWall    2482     5        5        0.0226    71.4    
ahmedBody    37650    5        4.7      0.00188   95.3    


Doing final balancing
---------------------

Writing 276945 added cells to cellSet addedCells
Writing 219235 faces inside added layer to faceSet layerFaces

Writing fields with layer information:
    nSurfaceLayers    : actual number of layers
    thickness         : overall layer thickness
    thicknessFraction : overall layer thickness (fraction of desired thickness)

Layer mesh : cells:871656  faces:2684273  points:941300  unbalance:0.00284057
Cells per refinement level:
    0	81007
    1	43708
    2	117214
    3	314258
    4	315469
Writing mesh to time constant
Wrote mesh in = 0.09 s.
Layers added in = 13.5 s.
Checking final mesh ...
Checking faces in error :
    non-orthogonality > 65  degrees                        : 0
    faces with face pyramid volume < 1e-13                 : 0
    faces with face-decomposition tet quality < 1e-15      : 0
    faces with concavity > 80  degrees                     : 0
    faces with skewness > 4   (internal) or 20  (boundary) : 0
    faces with interpolation weights (0..1)  < 0.02        : 0
    faces with volume ratio of neighbour cells < 0.01      : 0
    faces with face twist < 0.02                           : 0
    faces on cells with determinant < 0.001                : 0
Finished meshing without any errors
Finished meshing in = 44.87 s.
End

Finalising parallel run
